#======================================================================

# Note: Amorphous region of polyethylene
# Common_name: Amorphous region
#----------------------------------------------------------------------

data_VESTA_phase_1


_chemical_name_common                  'POSCAR file written by OVITO          '
_cell_length_a                         13.77692
_cell_length_b                         44.47169
_cell_length_c                         35.11406
_cell_angle_alpha                      90
_cell_angle_beta                       90
_cell_angle_gamma                      90
_space_group_name_H-M_alt              'P 1'
_space_group_IT_number                 1

loop_
_space_group_symop_operation_xyz
   'x, y, z'

loop_
   _atom_site_label
   _atom_site_occupancy
   _atom_site_fract_x
   _atom_site_fract_y
   _atom_site_fract_z
   _atom_site_adp_type
   _atom_site_B_iso_or_equiv
   _atom_site_type_symbol
   C1         1.0     0.991924      0.442469      0.556331     Biso  1.000000 C
   C2         1.0     0.947691      0.413300      0.573987     Biso  1.000000 C
   C3         1.0     0.863035      0.400539      0.551290     Biso  1.000000 C
   C4         1.0     0.833543      0.370239      0.566099     Biso  1.000000 C
   C5         1.0     0.753475      0.357084      0.540611     Biso  1.000000 C
   C6         1.0     0.739154      0.323571      0.543373     Biso  1.000000 C
   C7         1.0     0.669653      0.309982      0.515749     Biso  1.000000 C
   C8         1.0     0.658403      0.275565      0.514553     Biso  1.000000 C
   C9         1.0     0.743015      0.260538      0.492823     Biso  1.000000 C
   C10        1.0     0.720703      0.226145      0.486330     Biso  1.000000 C
   C11        1.0     0.804371      0.208871      0.466452     Biso  1.000000 C
   C12        1.0     0.785071      0.175389      0.462778     Biso  1.000000 C
   C13        1.0     0.871919      0.156847      0.448596     Biso  1.000000 C
   C14        1.0     0.845063      0.126787      0.428661     Biso  1.000000 C
   C15        1.0     0.934459      0.104562      0.429686     Biso  1.000000 C
   C16        1.0     0.946007      0.086917      0.465598     Biso  1.000000 C
   C17        1.0     0.019668      0.060936      0.460899     Biso  1.000000 C
   C18        1.0     0.038569      0.045554      0.498690     Biso  1.000000 C
   C19        1.0     0.127769      0.025651      0.498747     Biso  1.000000 C
   C20        1.0     0.130469      0.004559      0.533548     Biso  1.000000 C
   C21        1.0     0.205892      0.978136      0.534345     Biso  1.000000 C
   C22        1.0     0.177352      0.953140      0.562226     Biso  1.000000 C
   C23        1.0     0.261333      0.931704      0.571966     Biso  1.000000 C
   C24        1.0     0.221824      0.909159      0.600700     Biso  1.000000 C
   C25        1.0     0.304325      0.888568      0.615766     Biso  1.000000 C
   C26        1.0     0.261006      0.868369      0.647833     Biso  1.000000 C
   C27        1.0     0.335108      0.842346      0.661018     Biso  1.000000 C
   C28        1.0     0.309087      0.831883      0.701429     Biso  1.000000 C
   C29        1.0     0.315089      0.797578      0.707068     Biso  1.000000 C
   C30        1.0     0.226281      0.780151      0.694737     Biso  1.000000 C
   C31        1.0     0.222405      0.747521      0.704249     Biso  1.000000 C
   C32        1.0     0.136718      0.730659      0.685168     Biso  1.000000 C
   C33        1.0     0.153885      0.724005      0.642963     Biso  1.000000 C
   C34        1.0     0.063291      0.720358      0.618727     Biso  1.000000 C
   C35        1.0     0.008765      0.749176      0.610155     Biso  1.000000 C
   C36        1.0     0.056867      0.769219      0.580993     Biso  1.000000 C
   C37        1.0     0.996962      0.795999      0.568178     Biso  1.000000 C
   C38        1.0     0.943133      0.814054      0.600416     Biso  1.000000 C
   C39        1.0     0.011756      0.835793      0.623341     Biso  1.000000 C
   C40        1.0     0.968094      0.857771      0.653414     Biso  1.000000 C
   C41        1.0     0.938727      0.889032      0.640741     Biso  1.000000 C
   C42        1.0     0.928848      0.913627      0.670359     Biso  1.000000 C
   C43        1.0     0.866671      0.940595      0.656177     Biso  1.000000 C
   C44        1.0     0.918853      0.960122      0.626872     Biso  1.000000 C
   C45        1.0     0.855892      0.977153      0.597055     Biso  1.000000 C
   C46        1.0     0.807972      0.005018      0.613146     Biso  1.000000 C
   C47        1.0     0.745897      0.022649      0.583813     Biso  1.000000 C
   C48        1.0     0.775112      0.055663      0.582531     Biso  1.000000 C
   C49        1.0     0.728193      0.072859      0.551204     Biso  1.000000 C
   C50        1.0     0.754506      0.105520      0.542006     Biso  1.000000 C
   C51        1.0     0.773465      0.123160      0.577604     Biso  1.000000 C
   C52        1.0     0.797861      0.156971      0.568691     Biso  1.000000 C
   C53        1.0     0.836527      0.176648      0.602637     Biso  1.000000 C
   C54        1.0     0.846275      0.210652      0.590904     Biso  1.000000 C
   C55        1.0     0.905911      0.228106      0.619269     Biso  1.000000 C
   C56        1.0     0.921597      0.261057      0.608475     Biso  1.000000 C
   C57        1.0     0.971826      0.281562      0.638378     Biso  1.000000 C
   C58        1.0     0.984528      0.314010      0.627243     Biso  1.000000 C
   C59        1.0     0.043468      0.330243      0.657601     Biso  1.000000 C
   C60        1.0     0.035114      0.364318      0.654354     Biso  1.000000 C
   C61        1.0     0.041530      0.379436      0.692487     Biso  1.000000 C
   C62        1.0     0.064046      0.412650      0.691092     Biso  1.000000 C
   C63        1.0     0.032435      0.427920      0.728085     Biso  1.000000 C
   C64        1.0     0.067763      0.460348      0.732699     Biso  1.000000 C
   C65        1.0     0.033444      0.480522      0.764253     Biso  1.000000 C
   C66        1.0     0.070187      0.512653      0.763826     Biso  1.000000 C
   C67        1.0     0.037872      0.532176      0.795722     Biso  1.000000 C
   C68        1.0     0.061317      0.565835      0.788887     Biso  1.000000 C
   C69        1.0     0.998611      0.588283      0.810730     Biso  1.000000 C
   C70        1.0     0.051133      0.618457      0.809078     Biso  1.000000 C
   C71        1.0     0.033691      0.633568      0.769208     Biso  1.000000 C
   C72        1.0     0.938458      0.652367      0.763285     Biso  1.000000 C
   C73        1.0     0.945738      0.668383      0.723700     Biso  1.000000 C
   C74        1.0     0.859957      0.687240      0.712536     Biso  1.000000 C
   C75        1.0     0.777087      0.668566      0.697926     Biso  1.000000 C
   C76        1.0     0.683655      0.687569      0.688443     Biso  1.000000 C
   C77        1.0     0.595987      0.668048      0.673179     Biso  1.000000 C
   C78        1.0     0.499042      0.685239      0.665148     Biso  1.000000 C
   C79        1.0     0.514023      0.709277      0.633878     Biso  1.000000 C
   C80        1.0     0.422276      0.726962      0.622743     Biso  1.000000 C
   C81        1.0     0.434485      0.747490      0.589708     Biso  1.000000 C
   C82        1.0     0.340211      0.764395      0.579398     Biso  1.000000 C
   C83        1.0     0.364200      0.791284      0.555676     Biso  1.000000 C
   C84        1.0     0.277940      0.811007      0.543487     Biso  1.000000 C
   C85        1.0     0.302554      0.835308      0.512730     Biso  1.000000 C
   C86        1.0     0.219074      0.857585      0.503190     Biso  1.000000 C
   C87        1.0     0.241343      0.877991      0.466680     Biso  1.000000 C
   C88        1.0     0.159438      0.901123      0.459048     Biso  1.000000 C
   C89        1.0     0.180313      0.918963      0.421484     Biso  1.000000 C
   C90        1.0     0.092645      0.938490      0.409694     Biso  1.000000 C
   C91        1.0     0.130425      0.967479      0.388763     Biso  1.000000 C
   C92        1.0     0.043780      0.984468      0.374808     Biso  1.000000 C
   C93        1.0     0.070448      0.015960      0.358661     Biso  1.000000 C
   C94        1.0     0.986277      0.032339      0.340918     Biso  1.000000 C
   C95        1.0     0.009019      0.065533      0.333258     Biso  1.000000 C
   C96        1.0     0.931599      0.085336      0.313579     Biso  1.000000 C
   C97        1.0     0.960764      0.118009      0.313436     Biso  1.000000 C
   C98        1.0     0.901585      0.135226      0.282110     Biso  1.000000 C
   C99        1.0     0.929479      0.168405      0.281740     Biso  1.000000 C
   C100       1.0     0.879773      0.184566      0.313465     Biso  1.000000 C
   C101       1.0     0.923767      0.214463      0.324885     Biso  1.000000 C
   C102       1.0     0.979149      0.212718      0.365154     Biso  1.000000 C
   C103       1.0     0.054537      0.187327      0.365125     Biso  1.000000 C
   C104       1.0     0.128734      0.187770      0.397961     Biso  1.000000 C
   C105       1.0     0.225207      0.171584      0.390044     Biso  1.000000 C
   C106       1.0     0.237118      0.137945      0.399869     Biso  1.000000 C
   C107       1.0     0.231246      0.128971      0.443214     Biso  1.000000 C
   C108       1.0     0.291194      0.101744      0.454178     Biso  1.000000 C
   C109       1.0     0.273309      0.092246      0.496326     Biso  1.000000 C
   C110       1.0     0.306539      0.115367      0.525802     Biso  1.000000 C
   C111       1.0     0.417964      0.119567      0.528849     Biso  1.000000 C
   C112       1.0     0.448813      0.142391      0.560432     Biso  1.000000 C
   C113       1.0     0.441184      0.175121      0.550749     Biso  1.000000 C
   C114       1.0     0.465682      0.195168      0.584809     Biso  1.000000 C
   C115       1.0     0.418146      0.227382      0.582958     Biso  1.000000 C
   C116       1.0     0.454184      0.245798      0.617417     Biso  1.000000 C
   C117       1.0     0.407701      0.278185      0.620692     Biso  1.000000 C
   C118       1.0     0.439616      0.294748      0.656091     Biso  1.000000 C
   C119       1.0     0.375952      0.324738      0.660363     Biso  1.000000 C
   C120       1.0     0.427560      0.349329      0.683374     Biso  1.000000 C
   C121       1.0     0.369165      0.378797      0.685026     Biso  1.000000 C
   C122       1.0     0.434833      0.400334      0.705388     Biso  1.000000 C
   C123       1.0     0.381272      0.431046      0.711881     Biso  1.000000 C
   C124       1.0     0.442425      0.455911      0.728427     Biso  1.000000 C
   C125       1.0     0.386840      0.486592      0.730250     Biso  1.000000 C
   C126       1.0     0.440241      0.512630      0.748761     Biso  1.000000 C
   C127       1.0     0.381098      0.541411      0.759269     Biso  1.000000 C
   C128       1.0     0.439500      0.568983      0.768952     Biso  1.000000 C
   C129       1.0     0.516520      0.576943      0.737569     Biso  1.000000 C
   C130       1.0     0.624142      0.571718      0.751153     Biso  1.000000 C
   C131       1.0     0.701634      0.579698      0.720368     Biso  1.000000 C
   C132       1.0     0.803152      0.565633      0.732499     Biso  1.000000 C
   C133       1.0     0.832455      0.536992      0.708179     Biso  1.000000 C
   C134       1.0     0.778538      0.508365      0.721649     Biso  1.000000 C
   C135       1.0     0.804756      0.482589      0.694623     Biso  1.000000 C
   C136       1.0     0.777130      0.452790      0.711909     Biso  1.000000 C
   C137       1.0     0.774416      0.424311      0.686222     Biso  1.000000 C
   C138       1.0     0.746913      0.396802      0.710514     Biso  1.000000 C
   C139       1.0     0.753105      0.368094      0.686165     Biso  1.000000 C
   C140       1.0     0.717320      0.340130      0.705644     Biso  1.000000 C
   C141       1.0     0.744249      0.309902      0.687646     Biso  1.000000 C
   C142       1.0     0.676563      0.284976      0.701145     Biso  1.000000 C
   C143       1.0     0.700226      0.254797      0.682861     Biso  1.000000 C
   C144       1.0     0.625188      0.230064      0.691718     Biso  1.000000 C
   C145       1.0     0.645787      0.200924      0.667625     Biso  1.000000 C
   C146       1.0     0.570800      0.176585      0.675514     Biso  1.000000 C
   C147       1.0     0.590978      0.148091      0.653414     Biso  1.000000 C
   C148       1.0     0.526290      0.122702      0.664208     Biso  1.000000 C
   C149       1.0     0.542854      0.093299      0.644956     Biso  1.000000 C
   C150       1.0     0.466640      0.070106      0.657173     Biso  1.000000 C
   C151       1.0     0.490114      0.038805      0.641225     Biso  1.000000 C
   C152       1.0     0.407483      0.016479      0.644956     Biso  1.000000 C
   C153       1.0     0.316403      0.025237      0.621632     Biso  1.000000 C
   C154       1.0     0.223334      0.015186      0.642336     Biso  1.000000 C
   C155       1.0     0.133851      0.032345      0.634789     Biso  1.000000 C
   C156       1.0     0.117621      0.056221      0.665660     Biso  1.000000 C
   C157       1.0     0.023725      0.074563      0.657316     Biso  1.000000 C
   C158       1.0     0.977291      0.094598      0.688386     Biso  1.000000 C
   C159       1.0     0.889695      0.113631      0.676226     Biso  1.000000 C
   C160       1.0     0.855834      0.135609      0.706157     Biso  1.000000 C
   C161       1.0     0.918163      0.164162      0.708293     Biso  1.000000 C
   C162       1.0     0.880673      0.182600      0.740246     Biso  1.000000 C
   C163       1.0     0.920943      0.214310      0.743578     Biso  1.000000 C
   C164       1.0     0.865582      0.233233      0.771914     Biso  1.000000 C
   C165       1.0     0.897643      0.265842      0.769180     Biso  1.000000 C
   C166       1.0     0.864530      0.287762      0.799310     Biso  1.000000 C
   C167       1.0     0.918439      0.317142      0.797744     Biso  1.000000 C
   C168       1.0     0.899763      0.338007      0.831633     Biso  1.000000 C
   C169       1.0     0.948692      0.369650      0.830210     Biso  1.000000 C
   C170       1.0     0.905330      0.391290      0.860368     Biso  1.000000 C
   C171       1.0     0.934103      0.425980      0.858290     Biso  1.000000 C
   C172       1.0     0.904633      0.444817      0.893774     Biso  1.000000 C
   C173       1.0     0.941405      0.476448      0.886341     Biso  1.000000 C
   C174       1.0     0.936077      0.495730      0.922053     Biso  1.000000 C
   C175       1.0     0.956764      0.530035      0.915446     Biso  1.000000 C
   C176       1.0     0.910607      0.550470      0.947171     Biso  1.000000 C
   C177       1.0     0.958005      0.551325      0.986728     Biso  1.000000 C
   C178       1.0     0.898398      0.567890      0.016672     Biso  1.000000 C
   C179       1.0     0.862120      0.548091      0.049121     Biso  1.000000 C
   C180       1.0     0.781093      0.561408      0.073157     Biso  1.000000 C
   C181       1.0     0.740286      0.542598      0.108570     Biso  1.000000 C
   C182       1.0     0.679046      0.515844      0.098013     Biso  1.000000 C
   C183       1.0     0.724644      0.484948      0.105409     Biso  1.000000 C
   C184       1.0     0.665429      0.458182      0.088285     Biso  1.000000 C
   C185       1.0     0.701511      0.426250      0.097378     Biso  1.000000 C
   C186       1.0     0.621928      0.402927      0.093228     Biso  1.000000 C
   C187       1.0     0.655535      0.370731      0.089378     Biso  1.000000 C
   C188       1.0     0.698157      0.359452      0.125942     Biso  1.000000 C
   C189       1.0     0.753649      0.328745      0.126591     Biso  1.000000 C
   C190       1.0     0.857584      0.327933      0.106981     Biso  1.000000 C
   C191       1.0     0.900830      0.297143      0.111389     Biso  1.000000 C
   C192       1.0     0.848844      0.272903      0.090318     Biso  1.000000 C
   C193       1.0     0.899211      0.241530      0.093214     Biso  1.000000 C
   C194       1.0     0.833253      0.214405      0.083890     Biso  1.000000 C
   C195       1.0     0.874866      0.186574      0.098796     Biso  1.000000 C
   C196       1.0     0.818649      0.157272      0.091360     Biso  1.000000 C
   C197       1.0     0.863688      0.128633      0.105850     Biso  1.000000 C
   C198       1.0     0.799515      0.101488      0.097176     Biso  1.000000 C
   C199       1.0     0.849331      0.071885      0.107348     Biso  1.000000 C
   C200       1.0     0.781282      0.045297      0.099323     Biso  1.000000 C
   C201       1.0     0.542034      0.732690      0.765706     Biso  1.000000 C
   C202       1.0     0.597133      0.734707      0.803525     Biso  1.000000 C
   C203       1.0     0.695080      0.720241      0.802671     Biso  1.000000 C
   C204       1.0     0.760879      0.728934      0.835136     Biso  1.000000 C
   C205       1.0     0.857649      0.714831      0.833741     Biso  1.000000 C
   C206       1.0     0.922867      0.724639      0.866719     Biso  1.000000 C
   C207       1.0     0.031245      0.713945      0.859600     Biso  1.000000 C
   C208       1.0     0.088551      0.739609      0.842968     Biso  1.000000 C
   C209       1.0     0.181380      0.725921      0.821324     Biso  1.000000 C
   C210       1.0     0.256615      0.750218      0.816910     Biso  1.000000 C
   C211       1.0     0.311569      0.760563      0.851540     Biso  1.000000 C
   C212       1.0     0.372838      0.787066      0.840918     Biso  1.000000 C
   C213       1.0     0.404616      0.800002      0.882753     Biso  1.000000 C
   C214       1.0     0.462082      0.829419      0.880759     Biso  1.000000 C
   C215       1.0     0.571242      0.823140      0.877228     Biso  1.000000 C
   C216       1.0     0.636133      0.849766      0.871703     Biso  1.000000 C
   C217       1.0     0.745048      0.841741      0.877285     Biso  1.000000 C
   C218       1.0     0.774096      0.836967      0.919006     Biso  1.000000 C
   C219       1.0     0.884912      0.828341      0.922537     Biso  1.000000 C
   C220       1.0     0.920275      0.820595      0.962493     Biso  1.000000 C
   C221       1.0     0.028966      0.817278      0.967021     Biso  1.000000 C
   C222       1.0     0.065135      0.783407      0.962009     Biso  1.000000 C
   C223       1.0     0.178266      0.777577      0.961040     Biso  1.000000 C
   C224       1.0     0.196507      0.744756      0.962493     Biso  1.000000 C
   C225       1.0     0.304013      0.735372      0.958705     Biso  1.000000 C
   C226       1.0     0.327095      0.702871      0.962122     Biso  1.000000 C
   C227       1.0     0.281620      0.684074      0.930369     Biso  1.000000 C
   C228       1.0     0.323277      0.652875      0.928233     Biso  1.000000 C
   C229       1.0     0.262051      0.630908      0.907273     Biso  1.000000 C
   C230       1.0     0.315263      0.600648      0.908725     Biso  1.000000 C
   C231       1.0     0.265818      0.574198      0.887537     Biso  1.000000 C
   C232       1.0     0.319023      0.544275      0.886170     Biso  1.000000 C
   C233       1.0     0.256535      0.521789      0.863757     Biso  1.000000 C
   C234       1.0     0.317441      0.494763      0.859514     Biso  1.000000 C
   C235       1.0     0.254793      0.469783      0.843652     Biso  1.000000 C
   C236       1.0     0.318631      0.439901      0.836902     Biso  1.000000 C
   C237       1.0     0.254408      0.420208      0.809876     Biso  1.000000 C
   C238       1.0     0.298758      0.388646      0.802130     Biso  1.000000 C
   C239       1.0     0.231595      0.370275      0.774591     Biso  1.000000 C
   C240       1.0     0.270943      0.338302      0.768553     Biso  1.000000 C
   C241       1.0     0.204527      0.317936      0.742666     Biso  1.000000 C
   C242       1.0     0.238345      0.284474      0.740246     Biso  1.000000 C
   C243       1.0     0.170797      0.265320      0.712792     Biso  1.000000 C
   C244       1.0     0.189829      0.231411      0.711397     Biso  1.000000 C
   C245       1.0     0.145719      0.217780      0.673805     Biso  1.000000 C
   C246       1.0     0.177751      0.184539      0.667682     Biso  1.000000 C
   C247       1.0     0.140311      0.169154      0.631884     Biso  1.000000 C
   C248       1.0     0.160432      0.184719      0.594236     Biso  1.000000 C
   C249       1.0     0.106908      0.172045      0.558438     Biso  1.000000 C
   C250       1.0     0.127021      0.189279      0.522270     Biso  1.000000 C
   C251       1.0     0.095374      0.221767      0.524008     Biso  1.000000 C
   C252       1.0     0.081031      0.235823      0.484166     Biso  1.000000 C
   C253       1.0     0.044572      0.268558      0.486615     Biso  1.000000 C
   C254       1.0     0.107416      0.290267      0.509426     Biso  1.000000 C
   C255       1.0     0.073700      0.323425      0.502278     Biso  1.000000 C
   C256       1.0     0.108926      0.346682      0.529504     Biso  1.000000 C
   C257       1.0     0.216577      0.350424      0.528820     Biso  1.000000 C
   C258       1.0     0.258560      0.375258      0.554166     Biso  1.000000 C
   C259       1.0     0.372940      0.380486      0.548698     Biso  1.000000 C
   C260       1.0     0.399063      0.392320      0.509142     Biso  1.000000 C
   C261       1.0     0.499281      0.382237      0.496611     Biso  1.000000 C
   C262       1.0     0.518422      0.392329      0.454235     Biso  1.000000 C
   C263       1.0     0.479705      0.367824      0.427038     Biso  1.000000 C
   C264       1.0     0.484997      0.377823      0.385402     Biso  1.000000 C
   C265       1.0     0.403752      0.399075      0.373498     Biso  1.000000 C
   C266       1.0     0.387384      0.403069      0.330154     Biso  1.000000 C
   C267       1.0     0.304310      0.424984      0.327049     Biso  1.000000 C
   C268       1.0     0.200608      0.409401      0.333144     Biso  1.000000 C
   C269       1.0     0.171211      0.389431      0.296663     Biso  1.000000 C
   C270       1.0     0.066572      0.379281      0.299368     Biso  1.000000 C
   C271       1.0     0.028305      0.363781      0.263485     Biso  1.000000 C
   C272       1.0     0.945796      0.341034      0.274051     Biso  1.000000 C
   C273       1.0     0.925908      0.318159      0.240645     Biso  1.000000 C
   C274       1.0     0.841426      0.295915      0.248562     Biso  1.000000 C
   C275       1.0     0.828796      0.273692      0.215328     Biso  1.000000 C
   C276       1.0     0.757481      0.248784      0.227317     Biso  1.000000 C
   C277       1.0     0.762962      0.220809      0.203005     Biso  1.000000 C
   C278       1.0     0.680120      0.198606      0.213451     Biso  1.000000 C
   C279       1.0     0.692176      0.170336      0.190224     Biso  1.000000 C
   C280       1.0     0.613755      0.148666      0.200166     Biso  1.000000 C
   C281       1.0     0.622916      0.119293      0.180766     Biso  1.000000 C
   C282       1.0     0.538245      0.099660      0.188031     Biso  1.000000 C
   C283       1.0     0.532627      0.072162      0.162802     Biso  1.000000 C
   C284       1.0     0.453233      0.047517      0.175267     Biso  1.000000 C
   C285       1.0     0.349408      0.058051      0.175273     Biso  1.000000 C
   C286       1.0     0.274550      0.033544      0.184656     Biso  1.000000 C
   C287       1.0     0.175239      0.045097      0.188518     Biso  1.000000 C
   C288       1.0     0.108439      0.024516      0.211685     Biso  1.000000 C
   C289       1.0     0.005890      0.037681      0.214650     Biso  1.000000 C
   C290       1.0     0.919615      0.015548      0.223330     Biso  1.000000 C
   C291       1.0     0.821944      0.033006      0.221821     Biso  1.000000 C
   C292       1.0     0.731844      0.011995      0.231048     Biso  1.000000 C
   C293       1.0     0.730792      0.995918      0.269494     Biso  1.000000 C
   C294       1.0     0.640256      0.975658      0.276728     Biso  1.000000 C
   C295       1.0     0.642514      0.959477      0.313038     Biso  1.000000 C
   C296       1.0     0.718380      0.933710      0.315573     Biso  1.000000 C
   C297       1.0     0.708392      0.912750      0.350772     Biso  1.000000 C
   C298       1.0     0.802673      0.893205      0.355186     Biso  1.000000 C
   C299       1.0     0.806985      0.874899      0.389076     Biso  1.000000 C
   C300       1.0     0.899915      0.857990      0.397847     Biso  1.000000 C
   C301       1.0     0.891307      0.835220      0.427522     Biso  1.000000 C
   C302       1.0     0.837427      0.803242      0.418722     Biso  1.000000 C
   C303       1.0     0.869691      0.774105      0.441021     Biso  1.000000 C
   C304       1.0     0.821444      0.745399      0.426326     Biso  1.000000 C
   C305       1.0     0.855740      0.716070      0.444723     Biso  1.000000 C
   C306       1.0     0.818947      0.686229      0.426240     Biso  1.000000 C
   C307       1.0     0.876115      0.680225      0.387538     Biso  1.000000 C
   C308       1.0     0.974497      0.664417      0.392949     Biso  1.000000 C
   C309       1.0     0.027071      0.659841      0.353819     Biso  1.000000 C
   C310       1.0     0.067559      0.689012      0.336931     Biso  1.000000 C
   C311       1.0     0.148695      0.702751      0.362619     Biso  1.000000 C
   C312       1.0     0.200114      0.729618      0.344250     Biso  1.000000 C
   C313       1.0     0.135288      0.756835      0.334425     Biso  1.000000 C
   C314       1.0     0.087477      0.770478      0.370593     Biso  1.000000 C
   C315       1.0     0.159743      0.790056      0.393433     Biso  1.000000 C
   C316       1.0     0.151671      0.789656      0.437062     Biso  1.000000 C
   C317       1.0     0.183485      0.759516      0.452612     Biso  1.000000 C
   C318       1.0     0.292602      0.753797      0.452014     Biso  1.000000 C
   C319       1.0     0.329331      0.726070      0.475964     Biso  1.000000 C
   C320       1.0     0.437831      0.717813      0.470069     Biso  1.000000 C
   C321       1.0     0.453204      0.685075      0.482998     Biso  1.000000 C
   C322       1.0     0.556914      0.673117      0.479296     Biso  1.000000 C
   C323       1.0     0.567461      0.641297      0.497323     Biso  1.000000 C
   C324       1.0     0.673108      0.632968      0.500684     Biso  1.000000 C
   C325       1.0     0.716536      0.648773      0.535399     Biso  1.000000 C
   C326       1.0     0.817887      0.637166      0.543202     Biso  1.000000 C
   C327       1.0     0.861387      0.657500      0.574443     Biso  1.000000 C
   C328       1.0     0.960263      0.645920      0.587059     Biso  1.000000 C
   C329       1.0     0.042278      0.648652      0.559663     Biso  1.000000 C
   C330       1.0     0.145211      0.639965      0.571453     Biso  1.000000 C
   C331       1.0     0.224278      0.659762      0.551803     Biso  1.000000 C
   C332       1.0     0.320969      0.654044      0.570912     Biso  1.000000 C
   C333       1.0     0.368911      0.623796      0.562311     Biso  1.000000 C
   C334       1.0     0.447804      0.615276      0.591701     Biso  1.000000 C
   C335       1.0     0.505350      0.586815      0.580424     Biso  1.000000 C
   C336       1.0     0.571700      0.577438      0.614171     Biso  1.000000 C
   C337       1.0     0.638217      0.551914      0.601384     Biso  1.000000 C
   C338       1.0     0.718155      0.565680      0.576750     Biso  1.000000 C
   C339       1.0     0.778589      0.540700      0.556843     Biso  1.000000 C
   C340       1.0     0.865953      0.551482      0.531868     Biso  1.000000 C
   C341       1.0     0.914120      0.526397      0.508401     Biso  1.000000 C
   C342       1.0     0.020205      0.528211      0.497978     Biso  1.000000 C
   C343       1.0     0.048673      0.559366      0.483027     Biso  1.000000 C
   C344       1.0     0.144427      0.562892      0.464003     Biso  1.000000 C
   C345       1.0     0.171973      0.595195      0.452241     Biso  1.000000 C
   C346       1.0     0.265448      0.595659      0.424816     Biso  1.000000 C
   C347       1.0     0.288421      0.627097      0.410349     Biso  1.000000 C
   C348       1.0     0.386324      0.627459      0.386285     Biso  1.000000 C
   C349       1.0     0.407897      0.656214      0.366492     Biso  1.000000 C
   C350       1.0     0.514575      0.661498      0.362961     Biso  1.000000 C
   C351       1.0     0.538354      0.691623      0.342001     Biso  1.000000 C
   C352       1.0     0.630508      0.707471      0.354332     Biso  1.000000 C
   C353       1.0     0.666205      0.735258      0.332973     Biso  1.000000 C
   C354       1.0     0.594651      0.761182      0.336447     Biso  1.000000 C
   C355       1.0     0.563454      0.772904      0.377115     Biso  1.000000 C
   C356       1.0     0.470146      0.789559      0.378112     Biso  1.000000 C
   C357       1.0     0.478660      0.821020      0.359145     Biso  1.000000 C
   C358       1.0     0.373324      0.832607      0.353506     Biso  1.000000 C
   C359       1.0     0.364854      0.862123      0.329100     Biso  1.000000 C
   C360       1.0     0.255976      0.869230      0.321781     Biso  1.000000 C
   C361       1.0     0.234926      0.898143      0.301191     Biso  1.000000 C
   C362       1.0     0.127972      0.907504      0.298969     Biso  1.000000 C
   C363       1.0     0.110058      0.936001      0.272342     Biso  1.000000 C
   C364       1.0     0.004838      0.934611      0.253318     Biso  1.000000 C
   C365       1.0     0.985174      0.905874      0.228599     Biso  1.000000 C
   C366       1.0     0.879214      0.905017      0.210666     Biso  1.000000 C
   C367       1.0     0.860603      0.926647      0.176591     Biso  1.000000 C
   C368       1.0     0.749613      0.931229      0.168438     Biso  1.000000 C
   C369       1.0     0.742253      0.954307      0.133417     Biso  1.000000 C
   C370       1.0     0.639320      0.956477      0.116681     Biso  1.000000 C
   C371       1.0     0.631924      0.977306      0.080749     Biso  1.000000 C
   C372       1.0     0.542999      0.969213      0.057607     Biso  1.000000 C
   C373       1.0     0.451825      0.987038      0.074945     Biso  1.000000 C
   C374       1.0     0.357828      0.985970      0.049705     Biso  1.000000 C
   C375       1.0     0.375371      0.992091      0.007533     Biso  1.000000 C
   C376       1.0     0.281453      0.993480      0.983425     Biso  1.000000 C
   C377       1.0     0.308455      0.001280      0.943384     Biso  1.000000 C
   C378       1.0     0.219763      0.005551      0.915816     Biso  1.000000 C
   C379       1.0     0.250496      0.012638      0.873526     Biso  1.000000 C
   C380       1.0     0.162000      0.021961      0.852167     Biso  1.000000 C
   C381       1.0     0.186454      0.031214      0.809506     Biso  1.000000 C
   C382       1.0     0.245516      0.060386      0.802813     Biso  1.000000 C
   C383       1.0     0.245531      0.070965      0.761605     Biso  1.000000 C
   C384       1.0     0.299099      0.099588      0.750526     Biso  1.000000 C
   C385       1.0     0.284574      0.130214      0.773423     Biso  1.000000 C
   C386       1.0     0.332553      0.156372      0.754827     Biso  1.000000 C
   C387       1.0     0.342178      0.183581      0.780116     Biso  1.000000 C
   C388       1.0     0.421717      0.207803      0.768212     Biso  1.000000 C
   C389       1.0     0.423205      0.232796      0.797602     Biso  1.000000 C
   C390       1.0     0.494607      0.256996      0.786381     Biso  1.000000 C
   C391       1.0     0.467569      0.286244      0.804493     Biso  1.000000 C
   C392       1.0     0.540604      0.312164      0.794583     Biso  1.000000 C
   C393       1.0     0.528751      0.340897      0.820612     Biso  1.000000 C
   C394       1.0     0.585331      0.367264      0.806487     Biso  1.000000 C
   C395       1.0     0.567076      0.395189      0.829953     Biso  1.000000 C
   C396       1.0     0.612449      0.424545      0.813749     Biso  1.000000 C
   C397       1.0     0.607034      0.450704      0.842399     Biso  1.000000 C
   C398       1.0     0.677064      0.475204      0.831377     Biso  1.000000 C
   C399       1.0     0.676324      0.502597      0.858290     Biso  1.000000 C
   C400       1.0     0.729529      0.528987      0.843367     Biso  1.000000 C
   C401       1.0     0.925131      0.876808      0.532295     Biso  1.000000 C
   C402       1.0     0.897832      0.909085      0.524833     Biso  1.000000 C
   C403       1.0     0.839822      0.916094      0.488068     Biso  1.000000 C
   C404       1.0     0.836331      0.950878      0.484906     Biso  1.000000 C
   C405       1.0     0.793389      0.961766      0.445748     Biso  1.000000 C
   C406       1.0     0.785913      0.996345      0.440964     Biso  1.000000 C
   C407       1.0     0.741280      0.005663      0.401806     Biso  1.000000 C
   C408       1.0     0.731982      0.040935      0.397164     Biso  1.000000 C
   C409       1.0     0.668761      0.051989      0.364043     Biso  1.000000 C
   C410       1.0     0.653445      0.087117      0.363046     Biso  1.000000 C
   C411       1.0     0.606105      0.100339      0.397249     Biso  1.000000 C
   C412       1.0     0.591581      0.132805      0.389475     Biso  1.000000 C
   C413       1.0     0.535189      0.150247      0.421712     Biso  1.000000 C
   C414       1.0     0.527706      0.183610      0.412058     Biso  1.000000 C
   C415       1.0     0.476148      0.202103      0.442900     Biso  1.000000 C
   C416       1.0     0.456725      0.234478      0.431424     Biso  1.000000 C
   C417       1.0     0.380924      0.247621      0.461497     Biso  1.000000 C
   C418       1.0     0.368417      0.280800      0.451672     Biso  1.000000 C
   C419       1.0     0.283290      0.285504      0.421769     Biso  1.000000 C
   C420       1.0     0.265826      0.318408      0.409466     Biso  1.000000 C
   C421       1.0     0.183862      0.320742      0.381586     Biso  1.000000 C
   C422       1.0     0.218420      0.315055      0.340150     Biso  1.000000 C
   C423       1.0     0.165666      0.285518      0.323262     Biso  1.000000 C
   C424       1.0     0.209986      0.276384      0.285499     Biso  1.000000 C
   C425       1.0     0.157826      0.254214      0.259669     Biso  1.000000 C
   C426       1.0     0.204869      0.255642      0.219685     Biso  1.000000 C
   C427       1.0     0.128364      0.246610      0.188564     Biso  1.000000 C
   C428       1.0     0.077141      0.215538      0.193439     Biso  1.000000 C
   C429       1.0     0.149987      0.190210      0.198488     Biso  1.000000 C
   C430       1.0     0.121519      0.158673      0.184662     Biso  1.000000 C
   C431       1.0     0.149080      0.152208      0.143439     Biso  1.000000 C
   C432       1.0     0.131449      0.118335      0.133355     Biso  1.000000 C
   C433       1.0     0.153043      0.111539      0.088544     Biso  1.000000 C
   C434       1.0     0.151235      0.078847      0.081977     Biso  1.000000 C
   C435       1.0     0.164272      0.067572      0.038701     Biso  1.000000 C
   C436       1.0     0.071522      0.063722      0.015234     Biso  1.000000 C
   C437       1.0     0.009556      0.091655      0.009493     Biso  1.000000 C
   C438       1.0     0.915260      0.087209      0.988722     Biso  1.000000 C
   C439       1.0     0.862686      0.115744      0.982485     Biso  1.000000 C
   C440       1.0     0.870017      0.127071      0.942074     Biso  1.000000 C
   C441       1.0     0.832063      0.159995      0.936663     Biso  1.000000 C
   C442       1.0     0.909664      0.181948      0.950589     Biso  1.000000 C
   C443       1.0     0.866657      0.214088      0.947200     Biso  1.000000 C
   C444       1.0     0.936418      0.239043      0.965398     Biso  1.000000 C
   C445       1.0     0.905882      0.272129      0.964230     Biso  1.000000 C
   C446       1.0     0.971753      0.292933      0.989690     Biso  1.000000 C
   C447       1.0     0.940382      0.325352      0.991997     Biso  1.000000 C
   C448       1.0     0.005614      0.344234      0.016778     Biso  1.000000 C
   C449       1.0     0.978402      0.378037      0.024196     Biso  1.000000 C
   C450       1.0     0.027833      0.394454      0.053902     Biso  1.000000 C
   C451       1.0     0.995199      0.427756      0.054255     Biso  1.000000 C
   C452       1.0     0.063662      0.445478      0.082609     Biso  1.000000 C
   C453       1.0     0.035106      0.479344      0.087633     Biso  1.000000 C
   C454       1.0     0.096368      0.495402      0.119449     Biso  1.000000 C
   C455       1.0     0.106037      0.478501      0.156118     Biso  1.000000 C
   C456       1.0     0.011407      0.472418      0.177539     Biso  1.000000 C
   C457       1.0     0.028465      0.460595      0.217805     Biso  1.000000 C
   C458       1.0     0.932433      0.455124      0.242041     Biso  1.000000 C
   C459       1.0     0.851007      0.436447      0.220397     Biso  1.000000 C
   C460       1.0     0.780977      0.421449      0.249303     Biso  1.000000 C
   C461       1.0     0.713785      0.397562      0.230564     Biso  1.000000 C
   C462       1.0     0.655616      0.380358      0.260865     Biso  1.000000 C
   C463       1.0     0.612913      0.350707      0.244746     Biso  1.000000 C
   C464       1.0     0.508754      0.353311      0.231276     Biso  1.000000 C
   C465       1.0     0.469434      0.320668      0.230678     Biso  1.000000 C
   C466       1.0     0.501466      0.302445      0.196105     Biso  1.000000 C
   C467       1.0     0.441155      0.274911      0.186684     Biso  1.000000 C
   C468       1.0     0.486412      0.257900      0.153583     Biso  1.000000 C
   C469       1.0     0.438600      0.226838      0.146290     Biso  1.000000 C
   C470       1.0     0.482289      0.210908      0.111834     Biso  1.000000 C
   C471       1.0     0.458191      0.176954      0.106482     Biso  1.000000 C
   C472       1.0     0.505458      0.163887      0.070822     Biso  1.000000 C
   C473       1.0     0.465624      0.132431      0.061444     Biso  1.000000 C
   C474       1.0     0.521754      0.117649      0.028801     Biso  1.000000 C
   C475       1.0     0.487290      0.085482      0.022171     Biso  1.000000 C
   C476       1.0     0.526232      0.068944      0.984849     Biso  1.000000 C
   C477       1.0     0.621442      0.052014      0.994047     Biso  1.000000 C
   C478       1.0     0.659158      0.031648      0.961240     Biso  1.000000 C
   C479       1.0     0.684170      0.047670      0.925271     Biso  1.000000 C
   C480       1.0     0.771592      0.031234      0.905108     Biso  1.000000 C
   C481       1.0     0.796953      0.048805      0.866007     Biso  1.000000 C
   C482       1.0     0.902281      0.060442      0.862903     Biso  1.000000 C
   C483       1.0     0.912901      0.072919      0.821381     Biso  1.000000 C
   C484       1.0     0.996011      0.094340      0.815230     Biso  1.000000 C
   C485       1.0     0.974947      0.126486      0.831349     Biso  1.000000 C
   C486       1.0     0.044949      0.152404      0.824172     Biso  1.000000 C
   C487       1.0     0.013585      0.180318      0.847240     Biso  1.000000 C
   C488       1.0     0.069853      0.207922      0.834709     Biso  1.000000 C
   C489       1.0     0.067066      0.230845      0.868456     Biso  1.000000 C
   C490       1.0     0.113440      0.259526      0.852537     Biso  1.000000 C
   C491       1.0     0.082664      0.284290      0.879990     Biso  1.000000 C
   C492       1.0     0.132131      0.315256      0.874579     Biso  1.000000 C
   C493       1.0     0.105383      0.338488      0.905849     Biso  1.000000 C
   C494       1.0     0.167770      0.366198      0.906447     Biso  1.000000 C
   C495       1.0     0.141291      0.386766      0.940906     Biso  1.000000 C
   C496       1.0     0.190047      0.417795      0.934128     Biso  1.000000 C
   C497       1.0     0.161223      0.440461      0.965084     Biso  1.000000 C
   C498       1.0     0.203620      0.471546      0.960784     Biso  1.000000 C
   C499       1.0     0.176466      0.493438      0.993478     Biso  1.000000 C
   C500       1.0     0.227472      0.523903      0.990288     Biso  1.000000 C
   C501       1.0     0.219857      0.541997      0.027036     Biso  1.000000 C
   C502       1.0     0.283725      0.570793      0.027315     Biso  1.000000 C
   C503       1.0     0.276459      0.588225      0.063813     Biso  1.000000 C
   C504       1.0     0.331965      0.617794      0.062426     Biso  1.000000 C
   C505       1.0     0.372192      0.629772      0.100616     Biso  1.000000 C
   C506       1.0     0.422726      0.660180      0.096244     Biso  1.000000 C
   C507       1.0     0.499412      0.671869      0.123823     Biso  1.000000 C
   C508       1.0     0.601721      0.656934      0.119466     Biso  1.000000 C
   C509       1.0     0.662351      0.657147      0.155725     Biso  1.000000 C
   C510       1.0     0.761503      0.640375      0.147443     Biso  1.000000 C
   C511       1.0     0.850920      0.658173      0.126312     Biso  1.000000 C
   C512       1.0     0.937202      0.637951      0.117045     Biso  1.000000 C
   C513       1.0     0.008649      0.654773      0.090267     Biso  1.000000 C
   C514       1.0     0.975491      0.651008      0.048625     Biso  1.000000 C
   C515       1.0     0.021439      0.673513      0.019341     Biso  1.000000 C
   C516       1.0     0.985580      0.669870      0.977216     Biso  1.000000 C
   C517       1.0     0.007459      0.640013      0.957851     Biso  1.000000 C
   C518       1.0     0.963151      0.636233      0.917041     Biso  1.000000 C
   C519       1.0     0.851762      0.632846      0.922167     Biso  1.000000 C
   C520       1.0     0.800096      0.624857      0.884604     Biso  1.000000 C
   C521       1.0     0.695566      0.629590      0.891866     Biso  1.000000 C
   C522       1.0     0.636148      0.631270      0.853619     Biso  1.000000 C
   C523       1.0     0.542259      0.649587      0.855242     Biso  1.000000 C
   C524       1.0     0.493511      0.654741      0.816141     Biso  1.000000 C
   C525       1.0     0.385098      0.656641      0.823517     Biso  1.000000 C
   C526       1.0     0.335181      0.668219      0.784900     Biso  1.000000 C
   C527       1.0     0.320170      0.643489      0.754998     Biso  1.000000 C
   C528       1.0     0.278434      0.657954      0.719627     Biso  1.000000 C
   C529       1.0     0.282825      0.637921      0.685624     Biso  1.000000 C
   C530       1.0     0.208919      0.613782      0.686022     Biso  1.000000 C
   C531       1.0     0.229983      0.589081      0.654439     Biso  1.000000 C
   C532       1.0     0.157057      0.562062      0.652389     Biso  1.000000 C
   C533       1.0     0.190809      0.537120      0.624195     Biso  1.000000 C
   C534       1.0     0.272946      0.517308      0.635701     Biso  1.000000 C
   C535       1.0     0.306372      0.501039      0.601270     Biso  1.000000 C
   C536       1.0     0.404986      0.486839      0.607450     Biso  1.000000 C
   C537       1.0     0.440400      0.466113      0.576693     Biso  1.000000 C
   C538       1.0     0.514800      0.440711      0.586888     Biso  1.000000 C
   C539       1.0     0.619969      0.449228      0.592100     Biso  1.000000 C
   C540       1.0     0.668790      0.467004      0.559805     Biso  1.000000 C
   C541       1.0     0.657684      0.453933      0.519707     Biso  1.000000 C
   C542       1.0     0.729006      0.466824      0.491286     Biso  1.000000 C
   C543       1.0     0.720158      0.449984      0.455374     Biso  1.000000 C
   C544       1.0     0.782175      0.460283      0.421684     Biso  1.000000 C
   C545       1.0     0.774960      0.444906      0.382554     Biso  1.000000 C
   C546       1.0     0.673798      0.447870      0.366948     Biso  1.000000 C
   C547       1.0     0.631314      0.478256      0.359173     Biso  1.000000 C
   C548       1.0     0.520738      0.476999      0.347924     Biso  1.000000 C
   C549       1.0     0.481912      0.508513      0.342285     Biso  1.000000 C
   C550       1.0     0.373317      0.508644      0.329698     Biso  1.000000 C
   C551       1.0     0.332887      0.541411      0.319958     Biso  1.000000 C
   C552       1.0     0.236719      0.542746      0.299852     Biso  1.000000 C
   C553       1.0     0.155177      0.534591      0.326109     Biso  1.000000 C
   C554       1.0     0.060076      0.532322      0.306061     Biso  1.000000 C
   C555       1.0     0.966563      0.533120      0.332574     Biso  1.000000 C
   C556       1.0     0.938436      0.561821      0.350914     Biso  1.000000 C
   C557       1.0     0.851857      0.559175      0.375349     Biso  1.000000 C
   C558       1.0     0.819208      0.589466      0.391041     Biso  1.000000 C
   C559       1.0     0.714758      0.588211      0.402888     Biso  1.000000 C
   C560       1.0     0.692365      0.568887      0.437489     Biso  1.000000 C
   C561       1.0     0.585244      0.567666      0.446688     Biso  1.000000 C
   C562       1.0     0.571039      0.548667      0.482400     Biso  1.000000 C
   C563       1.0     0.466611      0.538604      0.489093     Biso  1.000000 C
   C564       1.0     0.424221      0.514328      0.463576     Biso  1.000000 C
   C565       1.0     0.340538      0.498597      0.481062     Biso  1.000000 C
   C566       1.0     0.303047      0.475895      0.452754     Biso  1.000000 C
   C567       1.0     0.207010      0.462992      0.463861     Biso  1.000000 C
   C568       1.0     0.183180      0.432890      0.442758     Biso  1.000000 C
   C569       1.0     0.093421      0.416572      0.455146     Biso  1.000000 C
   C570       1.0     0.061934      0.391978      0.427579     Biso  1.000000 C
   C571       1.0     0.958927      0.379141      0.432392     Biso  1.000000 C
   C572       1.0     0.924268      0.359072      0.399214     Biso  1.000000 C
   C573       1.0     0.812995      0.350530      0.404625     Biso  1.000000 C
   C574       1.0     0.780658      0.331909      0.366805     Biso  1.000000 C
   C575       1.0     0.686704      0.313875      0.368742     Biso  1.000000 C
   C576       1.0     0.669312      0.290941      0.335507     Biso  1.000000 C
   C577       1.0     0.581361      0.270596      0.343596     Biso  1.000000 C
   C578       1.0     0.556442      0.251577      0.308253     Biso  1.000000 C
   C579       1.0     0.472860      0.228000      0.313038     Biso  1.000000 C
   C580       1.0     0.454533      0.209986      0.274307     Biso  1.000000 C
   C581       1.0     0.377004      0.186898      0.283278     Biso  1.000000 C
   C582       1.0     0.372439      0.162320      0.255625     Biso  1.000000 C
   C583       1.0     0.303040      0.135694      0.261463     Biso  1.000000 C
   C584       1.0     0.330702      0.113413      0.291109     Biso  1.000000 C
   C585       1.0     0.254125      0.089986      0.302074     Biso  1.000000 C
   C586       1.0     0.287050      0.067788      0.332944     Biso  1.000000 C
   C587       1.0     0.329055      0.037636      0.322436     Biso  1.000000 C
   C588       1.0     0.367554      0.024329      0.362961     Biso  1.000000 C
   C589       1.0     0.410836      0.992230      0.360825     Biso  1.000000 C
   C590       1.0     0.425716      0.976359      0.400325     Biso  1.000000 C
   C591       1.0     0.446171      0.942023      0.396081     Biso  1.000000 C
   C592       1.0     0.490796      0.928859      0.430939     Biso  1.000000 C
   C593       1.0     0.497743      0.894719      0.427294     Biso  1.000000 C
   C594       1.0     0.528540      0.880289      0.464231     Biso  1.000000 C
   C595       1.0     0.546215      0.844984      0.461497     Biso  1.000000 C
   C596       1.0     0.591385      0.829101      0.497750     Biso  1.000000 C
   C597       1.0     0.599834      0.794954      0.497921     Biso  1.000000 C
   C598       1.0     0.645570      0.784304      0.534601     Biso  1.000000 C
   C599       1.0     0.669138      0.750494      0.536025     Biso  1.000000 C
   C600       1.0     0.718670      0.734203      0.567950     Biso  1.000000 C
   C601       1.0     0.524991      0.291416      0.043918     Biso  1.000000 C
   C602       1.0     0.620092      0.281609      0.023775     Biso  1.000000 C
   C603       1.0     0.636090      0.247259      0.021283     Biso  1.000000 C
   C604       1.0     0.553771      0.230739      0.000939     Biso  1.000000 C
   C605       1.0     0.585302      0.199550      0.986814     Biso  1.000000 C
   C606       1.0     0.509080      0.182677      0.965113     Biso  1.000000 C
   C607       1.0     0.462067      0.198725      0.931366     Biso  1.000000 C
   C608       1.0     0.362081      0.210209      0.937090     Biso  1.000000 C
   C609       1.0     0.322072      0.227330      0.904339     Biso  1.000000 C
   C610       1.0     0.361210      0.259982      0.900780     Biso  1.000000 C
   C611       1.0     0.329134      0.280033      0.934271     Biso  1.000000 C
   C612       1.0     0.391434      0.308096      0.940593     Biso  1.000000 C
   C613       1.0     0.352775      0.326649      0.973201     Biso  1.000000 C
   C614       1.0     0.413943      0.354397      0.981032     Biso  1.000000 C
   C615       1.0     0.376649      0.369364      0.019503     Biso  1.000000 C
   C616       1.0     0.381664      0.403462      0.017661     Biso  1.000000 C
   C617       1.0     0.361754      0.418706      0.055993     Biso  1.000000 C
   C618       1.0     0.389700      0.451652      0.056280     Biso  1.000000 C
   C619       1.0     0.364367      0.467161      0.095139     Biso  1.000000 C
   C620       1.0     0.399694      0.500137      0.099924     Biso  1.000000 C
   C621       1.0     0.373382      0.512925      0.138296     Biso  1.000000 C
   C622       1.0     0.415083      0.543846      0.147343     Biso  1.000000 C
   C623       1.0     0.371009      0.560726      0.180626     Biso  1.000000 C
   C624       1.0     0.419772      0.561378      0.219315     Biso  1.000000 C
   C625       1.0     0.513436      0.579302      0.219656     Biso  1.000000 C
   C626       1.0     0.549264      0.587903      0.259356     Biso  1.000000 C
   C627       1.0     0.617189      0.614039      0.254941     Biso  1.000000 C
   C628       1.0     0.698579      0.613645      0.286353     Biso  1.000000 C
   C629       1.0     0.753910      0.644721      0.287777     Biso  1.000000 C
   C630       1.0     0.810490      0.652904      0.251410     Biso  1.000000 C
   C631       1.0     0.863906      0.683503      0.256736     Biso  1.000000 C
   C632       1.0     0.916922      0.695403      0.220140     Biso  1.000000 C
   C633       1.0     0.982902      0.722987      0.232671     Biso  1.000000 C
   C634       1.0     0.030555      0.739056      0.198041     Biso  1.000000 C
   C635       1.0     0.098662      0.719571      0.173518     Biso  1.000000 C
   C636       1.0     0.131978      0.734484      0.138222     Biso  1.000000 C
   C637       1.0     0.213005      0.717489      0.116874     Biso  1.000000 C
   C638       1.0     0.270929      0.736661      0.088097     Biso  1.000000 C
   C639       1.0     0.370065      0.748468      0.104714     Biso  1.000000 C
   C640       1.0     0.442476      0.760905      0.076375     Biso  1.000000 C
   C641       1.0     0.548327      0.762945      0.092915     Biso  1.000000 C
   C642       1.0     0.562111      0.784435      0.126788     Biso  1.000000 C
   C643       1.0     0.555295      0.818083      0.112002     Biso  1.000000 C
   C644       1.0     0.650636      0.829243      0.093206     Biso  1.000000 C
   C645       1.0     0.641309      0.863508      0.078741     Biso  1.000000 C
   C646       1.0     0.741571      0.875625      0.066521     Biso  1.000000 C
   C647       1.0     0.744372      0.902076      0.038606     Biso  1.000000 C
   C648       1.0     0.692452      0.897356      0.000654     Biso  1.000000 C
   C649       1.0     0.647566      0.924947      0.984336     Biso  1.000000 C
   C650       1.0     0.618234      0.923128      0.940792     Biso  1.000000 C
   C651       1.0     0.587392      0.951696      0.919889     Biso  1.000000 C
   C652       1.0     0.573558      0.949346      0.877085     Biso  1.000000 C
   C653       1.0     0.534304      0.976251      0.857407     Biso  1.000000 C
   C654       1.0     0.557865      0.982349      0.814660     Biso  1.000000 C
   C655       1.0     0.503303      0.007397      0.794953     Biso  1.000000 C
   C656       1.0     0.505698      0.008096      0.750526     Biso  1.000000 C
   C657       1.0     0.607542      0.006767      0.732727     Biso  1.000000 C
   C658       1.0     0.673188      0.032300      0.740673     Biso  1.000000 C
   C659       1.0     0.775003      0.029869      0.724098     Biso  1.000000 C
   C660       1.0     0.837405      0.007784      0.747081     Biso  1.000000 C
   C661       1.0     0.938959      0.004782      0.731674     Biso  1.000000 C
   C662       1.0     0.995183      0.979665      0.747394     Biso  1.000000 C
   C663       1.0     0.097864      0.974715      0.729822     Biso  1.000000 C
   C664       1.0     0.164054      0.951638      0.750640     Biso  1.000000 C
   C665       1.0     0.252325      0.943930      0.726633     Biso  1.000000 C
   C666       1.0     0.323444      0.921513      0.744290     Biso  1.000000 C
   C667       1.0     0.414233      0.917043      0.718944     Biso  1.000000 C
   C668       1.0     0.492669      0.901289      0.743891     Biso  1.000000 C
   C669       1.0     0.581564      0.888389      0.718602     Biso  1.000000 C
   C670       1.0     0.667345      0.875756      0.740929     Biso  1.000000 C
   C671       1.0     0.720441      0.899695      0.765506     Biso  1.000000 C
   C672       1.0     0.812559      0.886884      0.785384     Biso  1.000000 C
   C673       1.0     0.875062      0.910839      0.807655     Biso  1.000000 C
   C674       1.0     0.849432      0.914066      0.849803     Biso  1.000000 C
   C675       1.0     0.894406      0.942900      0.868513     Biso  1.000000 C
   C676       1.0     0.879867      0.943257      0.911943     Biso  1.000000 C
   C677       1.0     0.947488      0.963895      0.935780     Biso  1.000000 C
   C678       1.0     0.938879      0.956290      0.979238     Biso  1.000000 C
   C679       1.0     0.996860      0.977767      0.004344     Biso  1.000000 C
   C680       1.0     0.994959      0.971167      0.046888     Biso  1.000000 C
   C681       1.0     0.047366      0.994591      0.070992     Biso  1.000000 C
   C682       1.0     0.070071      0.981311      0.111415     Biso  1.000000 C
   C683       1.0     0.148543      0.957394      0.112705     Biso  1.000000 C
   C684       1.0     0.148412      0.940392      0.151049     Biso  1.000000 C
   C685       1.0     0.240682      0.922792      0.157485     Biso  1.000000 C
   C686       1.0     0.313108      0.940577      0.183662     Biso  1.000000 C
   C687       1.0     0.416389      0.928538      0.187629     Biso  1.000000 C
   C688       1.0     0.420904      0.897437      0.204657     Biso  1.000000 C
   C689       1.0     0.523801      0.891202      0.214562     Biso  1.000000 C
   C690       1.0     0.538782      0.857299      0.221593     Biso  1.000000 C
   C691       1.0     0.644989      0.851455      0.235234     Biso  1.000000 C
   C692       1.0     0.662039      0.817024      0.234921     Biso  1.000000 C
   C693       1.0     0.758998      0.808459      0.251182     Biso  1.000000 C
   C694       1.0     0.843836      0.814949      0.222390     Biso  1.000000 C
   C695       1.0     0.943046      0.810836      0.240047     Biso  1.000000 C
   C696       1.0     0.030976      0.821157      0.215527     Biso  1.000000 C
   C697       1.0     0.124691      0.824127      0.239933     Biso  1.000000 C
   C698       1.0     0.217796      0.833985      0.219229     Biso  1.000000 C
   C699       1.0     0.286977      0.808574      0.209364     Biso  1.000000 C
   C700       1.0     0.334731      0.794466      0.246512     Biso  1.000000 C
   C701       1.0     0.413537      0.770851      0.239620     Biso  1.000000 C
   C702       1.0     0.368076      0.739588      0.229595     Biso  1.000000 C
   C703       1.0     0.424700      0.712776      0.242354     Biso  1.000000 C
   C704       1.0     0.390346      0.682745      0.226377     Biso  1.000000 C
   C705       1.0     0.289670      0.671527      0.238139     Biso  1.000000 C
   C706       1.0     0.253965      0.646329      0.211036     Biso  1.000000 C
   C707       1.0     0.163401      0.632869      0.226377     Biso  1.000000 C
   C708       1.0     0.123392      0.605042      0.205129     Biso  1.000000 C
   C709       1.0     0.015951      0.599052      0.214109     Biso  1.000000 C
   C710       1.0     0.990277      0.567398      0.199212     Biso  1.000000 C
   C711       1.0     0.882393      0.557985      0.203392     Biso  1.000000 C
   C712       1.0     0.846667      0.543697      0.242468     Biso  1.000000 C
   C713       1.0     0.741106      0.534892      0.245999     Biso  1.000000 C
   C714       1.0     0.721254      0.504122      0.225466     Biso  1.000000 C
   C715       1.0     0.622974      0.492624      0.239278     Biso  1.000000 C
   C716       1.0     0.570633      0.470680      0.212924     Biso  1.000000 C
   C717       1.0     0.487624      0.454409      0.233469     Biso  1.000000 C
   C718       1.0     0.428504      0.434500      0.205884     Biso  1.000000 C
   C719       1.0     0.333294      0.419155      0.219315     Biso  1.000000 C
   C720       1.0     0.305682      0.397679      0.187547     Biso  1.000000 C
   C721       1.0     0.204970      0.383467      0.193613     Biso  1.000000 C
   C722       1.0     0.169418      0.364053      0.158496     Biso  1.000000 C
   C723       1.0     0.240297      0.341173      0.141833     Biso  1.000000 C
   C724       1.0     0.194380      0.322557      0.108487     Biso  1.000000 C
   C725       1.0     0.264069      0.301197      0.088154     Biso  1.000000 C
   C726       1.0     0.206161      0.281160      0.062067     Biso  1.000000 C
   C727       1.0     0.244101      0.248685      0.062412     Biso  1.000000 C
   C728       1.0     0.193633      0.228272      0.033512     Biso  1.000000 C
   C729       1.0     0.216881      0.195955      0.032805     Biso  1.000000 C
   C730       1.0     0.159133      0.181029      0.000740     Biso  1.000000 C
   C731       1.0     0.209347      0.152008      0.983994     Biso  1.000000 C
   C732       1.0     0.175189      0.142818      0.944380     Biso  1.000000 C
   C733       1.0     0.233758      0.116102      0.929287     Biso  1.000000 C
   C734       1.0     0.336219      0.125989      0.915190     Biso  1.000000 C
   C735       1.0     0.382898      0.103692      0.887765     Biso  1.000000 C
   C736       1.0     0.485229      0.109432      0.875462     Biso  1.000000 C
   C737       1.0     0.499731      0.091949      0.837215     Biso  1.000000 C
   C738       1.0     0.595653      0.100759      0.815002     Biso  1.000000 C
   C739       1.0     0.582196      0.130992      0.793928     Biso  1.000000 C
   C740       1.0     0.677181      0.147290      0.785726     Biso  1.000000 C
   C741       1.0     0.724557      0.167175      0.816796     Biso  1.000000 C
   C742       1.0     0.655608      0.189699      0.834937     Biso  1.000000 C
   C743       1.0     0.712232      0.208547      0.863843     Biso  1.000000 C
   C744       1.0     0.675693      0.240640      0.861621     Biso  1.000000 C
   C745       1.0     0.722750      0.261619      0.891239     Biso  1.000000 C
   C746       1.0     0.675460      0.293145      0.890413     Biso  1.000000 C
   C747       1.0     0.721545      0.314561      0.918123     Biso  1.000000 C
   C748       1.0     0.671352      0.345140      0.920230     Biso  1.000000 C
   C749       1.0     0.736003      0.366576      0.944238     Biso  1.000000 C
   C750       1.0     0.700190      0.398560      0.951415     Biso  1.000000 C
   C751       1.0     0.758040      0.417741      0.979409     Biso  1.000000 C
   C752       1.0     0.723816      0.450512      0.982086     Biso  1.000000 C
   C753       1.0     0.615548      0.454180      0.986529     Biso  1.000000 C
   C754       1.0     0.580620      0.487630      0.990032     Biso  1.000000 C
   C755       1.0     0.589889      0.503218      0.951899     Biso  1.000000 C
   C756       1.0     0.545642      0.534550      0.950930     Biso  1.000000 C
   C757       1.0     0.590107      0.560007      0.976333     Biso  1.000000 C
   C758       1.0     0.537483      0.588836      0.971093     Biso  1.000000 C
   C759       1.0     0.597750      0.615386      0.984393     Biso  1.000000 C
   C760       1.0     0.547906      0.646968      0.987782     Biso  1.000000 C
   C761       1.0     0.601416      0.674315      0.006372     Biso  1.000000 C
   C762       1.0     0.695900      0.683778      0.987839     Biso  1.000000 C
   C763       1.0     0.718569      0.718496      0.987383     Biso  1.000000 C
   C764       1.0     0.754963      0.728606      0.026153     Biso  1.000000 C
   C765       1.0     0.814555      0.758155      0.024470     Biso  1.000000 C
   C766       1.0     0.846972      0.767017      0.064624     Biso  1.000000 C
   C767       1.0     0.896968      0.798005      0.067692     Biso  1.000000 C
   C768       1.0     0.927665      0.804666      0.108727     Biso  1.000000 C
   C769       1.0     0.986030      0.835101      0.112708     Biso  1.000000 C
   C770       1.0     0.094982      0.827860      0.106835     Biso  1.000000 C
   C771       1.0     0.164308      0.852112      0.104725     Biso  1.000000 C
   C772       1.0     0.263184      0.840963      0.088811     Biso  1.000000 C
   C773       1.0     0.347433      0.864142      0.085995     Biso  1.000000 C
   C774       1.0     0.338077      0.890115      0.059000     Biso  1.000000 C
   C775       1.0     0.354300      0.880062      0.016743     Biso  1.000000 C
   C776       1.0     0.348217      0.904835      0.987298     Biso  1.000000 C
   C777       1.0     0.341917      0.892241      0.947684     Biso  1.000000 C
   C778       1.0     0.294591      0.914277      0.920202     Biso  1.000000 C
   C779       1.0     0.283805      0.900385      0.879848     Biso  1.000000 C
   C780       1.0     0.193190      0.878985      0.879506     Biso  1.000000 C
   C781       1.0     0.173330      0.869873      0.838354     Biso  1.000000 C
   C782       1.0     0.085669      0.848664      0.833513     Biso  1.000000 C
   C783       1.0     0.084769      0.829996      0.797203     Biso  1.000000 C
   C784       1.0     0.994414      0.813210      0.789969     Biso  1.000000 C
   C785       1.0     0.979280      0.797873      0.749273     Biso  1.000000 C
   C786       1.0     0.872826      0.787282      0.744574     Biso  1.000000 C
   C787       1.0     0.856778      0.770586      0.708663     Biso  1.000000 C
   C788       1.0     0.753184      0.764006      0.692857     Biso  1.000000 C
   C789       1.0     0.697475      0.793065      0.683459     Biso  1.000000 C
   C790       1.0     0.694804      0.799885      0.640827     Biso  1.000000 C
   C791       1.0     0.617835      0.825099      0.633764     Biso  1.000000 C
   C792       1.0     0.659927      0.850194      0.610725     Biso  1.000000 C
   C793       1.0     0.586456      0.877456      0.604175     Biso  1.000000 C
   C794       1.0     0.622284      0.900039      0.574927     Biso  1.000000 C
   C795       1.0     0.541548      0.921648      0.562995     Biso  1.000000 C
   C796       1.0     0.571250      0.945962      0.533178     Biso  1.000000 C
   C797       1.0     0.505139      0.972716      0.526798     Biso  1.000000 C
   C798       1.0     0.552762      0.998076      0.502592     Biso  1.000000 C
   C799       1.0     0.483160      0.026357      0.502592     Biso  1.000000 C
   C800       1.0     0.532946      0.053271      0.480777     Biso  1.000000 C
   H1         1.0     0.044920      0.450002      0.576294     Biso  1.000000 H
   H2         1.0     0.019660      0.435361      0.528877     Biso  1.000000 H
   H3         1.0     0.006100      0.397195      0.577576     Biso  1.000000 H
   H4         1.0     0.919564      0.416947      0.602153     Biso  1.000000 H
   H5         1.0     0.891183      0.398225      0.522441     Biso  1.000000 H
   H6         1.0     0.802419      0.415798      0.547417     Biso  1.000000 H
   H7         1.0     0.893426      0.354010      0.567722     Biso  1.000000 H
   H8         1.0     0.810316      0.373400      0.595517     Biso  1.000000 H
   H9         1.0     0.765640      0.364327      0.511932     Biso  1.000000 H
   H10        1.0     0.680011      0.366823      0.548955     Biso  1.000000 H
   H11        1.0     0.804894      0.311476      0.544142     Biso  1.000000 H
   H12        1.0     0.708523      0.321235      0.570656     Biso  1.000000 H
   H13        1.0     0.676636      0.318671      0.487811     Biso  1.000000 H
   H14        1.0     0.599100      0.319982      0.523694     Biso  1.000000 H
   H15        1.0     0.666024      0.263987      0.543772     Biso  1.000000 H
   H16        1.0     0.586311      0.268473      0.503759     Biso  1.000000 H
   H17        1.0     0.812414      0.263099      0.508088     Biso  1.000000 H
   H18        1.0     0.752858      0.269116      0.465199     Biso  1.000000 H
   H19        1.0     0.703122      0.218016      0.515293     Biso  1.000000 H
   H20        1.0     0.652044      0.223033      0.468958     Biso  1.000000 H
   H21        1.0     0.878227      0.207900      0.482059     Biso  1.000000 H
   H22        1.0     0.820420      0.218347      0.438572     Biso  1.000000 H
   H23        1.0     0.752923      0.167096      0.488751     Biso  1.000000 H
   H24        1.0     0.727917      0.171207      0.440793     Biso  1.000000 H
   H25        1.0     0.919339      0.155055      0.473173     Biso  1.000000 H
   H26        1.0     0.914447      0.172014      0.430113     Biso  1.000000 H
   H27        1.0     0.781500      0.116077      0.442245     Biso  1.000000 H
   H28        1.0     0.819985      0.132123      0.399641     Biso  1.000000 H
   H29        1.0     0.003314      0.118135      0.421086     Biso  1.000000 H
   H30        1.0     0.925022      0.087727      0.406903     Biso  1.000000 H
   H31        1.0     0.967717      0.100411      0.490745     Biso  1.000000 H
   H32        1.0     0.871985      0.078887      0.472233     Biso  1.000000 H
   H33        1.0     0.086446      0.071004      0.447941     Biso  1.000000 H
   H34        1.0     0.991795      0.044450      0.442616     Biso  1.000000 H
   H35        1.0     0.050466      0.064982      0.518312     Biso  1.000000 H
   H36        1.0     0.973727      0.034922      0.508999     Biso  1.000000 H
   H37        1.0     0.199940      0.037872      0.495586     Biso  1.000000 H
   H38        1.0     0.142699      0.010718      0.474569     Biso  1.000000 H
   H39        1.0     0.137735      0.019056      0.557384     Biso  1.000000 H
   H40        1.0     0.059778      0.992581      0.535513     Biso  1.000000 H
   H41        1.0     0.279624      0.986435      0.539642     Biso  1.000000 H
   H42        1.0     0.212918      0.967311      0.506009     Biso  1.000000 H
   H43        1.0     0.152847      0.962301      0.586974     Biso  1.000000 H
   H44        1.0     0.114457      0.940631      0.551860     Biso  1.000000 H
   H45        1.0     0.327951      0.942700      0.582360     Biso  1.000000 H
   H46        1.0     0.286012      0.918324      0.547787     Biso  1.000000 H
   H47        1.0     0.190519      0.920883      0.624537     Biso  1.000000 H
   H48        1.0     0.159568      0.898053      0.587116     Biso  1.000000 H
   H49        1.0     0.369274      0.901932      0.627214     Biso  1.000000 H
   H50        1.0     0.326478      0.873676      0.593695     Biso  1.000000 H
   H51        1.0     0.234795      0.883206      0.668593     Biso  1.000000 H
   H52        1.0     0.195149      0.857313      0.636299     Biso  1.000000 H
   H53        1.0     0.398635      0.855709      0.668622     Biso  1.000000 H
   H54        1.0     0.354176      0.826547      0.639346     Biso  1.000000 H
   H55        1.0     0.354213      0.842042      0.721478     Biso  1.000000 H
   H56        1.0     0.240000      0.840866      0.708463     Biso  1.000000 H
   H57        1.0     0.322805      0.789778      0.735917     Biso  1.000000 H
   H58        1.0     0.380634      0.788550      0.690864     Biso  1.000000 H
   H59        1.0     0.165513      0.792939      0.705018     Biso  1.000000 H
   H60        1.0     0.215539      0.784201      0.663923     Biso  1.000000 H
   H61        1.0     0.206661      0.748760      0.733724     Biso  1.000000 H
   H62        1.0     0.294642      0.736303      0.700347     Biso  1.000000 H
   H63        1.0     0.129547      0.710478      0.696873     Biso  1.000000 H
   H64        1.0     0.072771      0.744362      0.688471     Biso  1.000000 H
   H65        1.0     0.199055      0.704031      0.645013     Biso  1.000000 H
   H66        1.0     0.195396      0.742748      0.631400     Biso  1.000000 H
   H67        1.0     0.080879      0.711060      0.591644     Biso  1.000000 H
   H68        1.0     0.018296      0.705697      0.635188     Biso  1.000000 H
   H69        1.0     0.988114      0.759936      0.635758     Biso  1.000000 H
   H70        1.0     0.939387      0.740611      0.597596     Biso  1.000000 H
   H71        1.0     0.120067      0.777966      0.595774     Biso  1.000000 H
   H72        1.0     0.072560      0.755032      0.557128     Biso  1.000000 H
   H73        1.0     0.942087      0.790036      0.547303     Biso  1.000000 H
   H74        1.0     0.044666      0.809984      0.552657     Biso  1.000000 H
   H75        1.0     0.882045      0.826554      0.590448     Biso  1.000000 H
   H76        1.0     0.907363      0.798601      0.618101     Biso  1.000000 H
   H77        1.0     0.045646      0.851003      0.605172     Biso  1.000000 H
   H78        1.0     0.063458      0.820898      0.635615     Biso  1.000000 H
   H79        1.0     0.901694      0.851844      0.669676     Biso  1.000000 H
   H80        1.0     0.025227      0.860139      0.673805     Biso  1.000000 H
   H81        1.0     0.874206      0.886693      0.624537     Biso  1.000000 H
   H82        1.0     0.993035      0.897705      0.620151     Biso  1.000000 H
   H83        1.0     0.907058      0.905903      0.699066     Biso  1.000000 H
   H84        1.0     0.005483      0.922979      0.670701     Biso  1.000000 H
   H85        1.0     0.841462      0.955728      0.677707     Biso  1.000000 H
   H86        1.0     0.804219      0.930211      0.640058     Biso  1.000000 H
   H87        1.0     0.973393      0.973645      0.641624     Biso  1.000000 H
   H88        1.0     0.963979      0.944780      0.608618     Biso  1.000000 H
   H89        1.0     0.792366      0.963387      0.588625     Biso  1.000000 H
   H90        1.0     0.897985      0.983881      0.572079     Biso  1.000000 H
   H91        1.0     0.763099      0.000096      0.638548     Biso  1.000000 H
   H92        1.0     0.863608      0.017365      0.628410     Biso  1.000000 H
   H93        1.0     0.668535      0.018883      0.587686     Biso  1.000000 H
   H94        1.0     0.770946      0.014194      0.557812     Biso  1.000000 H
   H95        1.0     0.765676      0.065906      0.610725     Biso  1.000000 H
   H96        1.0     0.854172      0.058348      0.575155     Biso  1.000000 H
   H97        1.0     0.648843      0.073911      0.558182     Biso  1.000000 H
   H98        1.0     0.740068      0.059536      0.524833     Biso  1.000000 H
   H99        1.0     0.826328      0.106363      0.525745     Biso  1.000000 H
   H100       1.0     0.699805      0.115821      0.521986     Biso  1.000000 H
   H101       1.0     0.839132      0.116693      0.591132     Biso  1.000000 H
   H102       1.0     0.721965      0.118333      0.599276     Biso  1.000000 H
   H103       1.0     0.853185      0.160951      0.547018     Biso  1.000000 H
   H104       1.0     0.733572      0.167348      0.557726     Biso  1.000000 H
   H105       1.0     0.900409      0.166080      0.612035     Biso  1.000000 H
   H106       1.0     0.795785      0.174033      0.628239     Biso  1.000000 H
   H107       1.0     0.883918      0.210265      0.563109     Biso  1.000000 H
   H108       1.0     0.776506      0.221400      0.582844     Biso  1.000000 H
   H109       1.0     0.980049      0.218016      0.615339     Biso  1.000000 H
   H110       1.0     0.880724      0.224458      0.647776     Biso  1.000000 H
   H111       1.0     0.961881      0.261826      0.582075     Biso  1.000000 H
   H112       1.0     0.849171      0.271830      0.604858     Biso  1.000000 H
   H113       1.0     0.047504      0.272799      0.639232     Biso  1.000000 H
   H114       1.0     0.936041      0.280161      0.665859     Biso  1.000000 H
   H115       1.0     0.009600      0.316944      0.598564     Biso  1.000000 H
   H116       1.0     0.911210      0.324192      0.627015     Biso  1.000000 H
   H117       1.0     0.121156      0.326227      0.658882     Biso  1.000000 H
   H118       1.0     0.019609      0.323423      0.685168     Biso  1.000000 H
   H119       1.0     0.086163      0.370538      0.631970     Biso  1.000000 H
   H120       1.0     0.960691      0.371707      0.645156     Biso  1.000000 H
   H121       1.0     0.091701      0.366337      0.709460     Biso  1.000000 H
   H122       1.0     0.969285      0.379404      0.705502     Biso  1.000000 H
   H123       1.0     0.141451      0.415405      0.685595     Biso  1.000000 H
   H124       1.0     0.024342      0.423884      0.669362     Biso  1.000000 H
   H125       1.0     0.061034      0.416228      0.755852     Biso  1.000000 H
   H126       1.0     0.953229      0.428312      0.733268     Biso  1.000000 H
   H127       1.0     0.140885      0.458646      0.737569     Biso  1.000000 H
   H128       1.0     0.050748      0.472439      0.707154     Biso  1.000000 H
   H129       1.0     0.054603      0.468859      0.789713     Biso  1.000000 H
   H130       1.0     0.951465      0.479018      0.763940     Biso  1.000000 H
   H131       1.0     0.150865      0.513762      0.766389     Biso  1.000000 H
   H132       1.0     0.047170      0.522387      0.736857     Biso  1.000000 H
   H133       1.0     0.064772      0.525423      0.824941     Biso  1.000000 H
   H134       1.0     0.957127      0.532072      0.793073     Biso  1.000000 H
   H135       1.0     0.136000      0.567328      0.797260     Biso  1.000000 H
   H136       1.0     0.068198      0.571191      0.759184     Biso  1.000000 H
   H137       1.0     0.987912      0.586426      0.842740     Biso  1.000000 H
   H138       1.0     0.927621      0.588027      0.797174     Biso  1.000000 H
   H139       1.0     0.010732      0.631742      0.830067     Biso  1.000000 H
   H140       1.0     0.128429      0.619397      0.815144     Biso  1.000000 H
   H141       1.0     0.038511      0.615323      0.747878     Biso  1.000000 H
   H142       1.0     0.095352      0.647388      0.762772     Biso  1.000000 H
   H143       1.0     0.881776      0.634422      0.764880     Biso  1.000000 H
   H144       1.0     0.922555      0.668228      0.785100     Biso  1.000000 H
   H145       1.0     0.960415      0.651319      0.703195     Biso  1.000000 H
   H146       1.0     0.010086      0.682847      0.722532     Biso  1.000000 H
   H147       1.0     0.835380      0.699484      0.736999     Biso  1.000000 H
   H148       1.0     0.880303      0.701225      0.688927     Biso  1.000000 H
   H149       1.0     0.743864      0.654287      0.722048     Biso  1.000000 H
   H150       1.0     0.791996      0.656012      0.672182     Biso  1.000000 H
   H151       1.0     0.658991      0.698722      0.716039     Biso  1.000000 H
   H152       1.0     0.704110      0.704843      0.668309     Biso  1.000000 H
   H153       1.0     0.576381      0.649335      0.692629     Biso  1.000000 H
   H154       1.0     0.620071      0.657129      0.647348     Biso  1.000000 H
   H155       1.0     0.446751      0.670092      0.652702     Biso  1.000000 H
   H156       1.0     0.468447      0.695102      0.690294     Biso  1.000000 H
   H157       1.0     0.555310      0.701827      0.610753     Biso  1.000000 H
   H158       1.0     0.564702      0.724280      0.646779     Biso  1.000000 H
   H159       1.0     0.361798      0.712508      0.616477     Biso  1.000000 H
   H160       1.0     0.393017      0.741340      0.645725     Biso  1.000000 H
   H161       1.0     0.453008      0.736867      0.561656     Biso  1.000000 H
   H162       1.0     0.495159      0.763023      0.596713     Biso  1.000000 H
   H163       1.0     0.288864      0.750114      0.567722     Biso  1.000000 H
   H164       1.0     0.304833      0.771566      0.604431     Biso  1.000000 H
   H165       1.0     0.391246      0.785022      0.526428     Biso  1.000000 H
   H166       1.0     0.423778      0.804560      0.567979     Biso  1.000000 H
   H167       1.0     0.211655      0.798122      0.532380     Biso  1.000000 H
   H168       1.0     0.248558      0.823284      0.568064     Biso  1.000000 H
   H169       1.0     0.338142      0.822835      0.489862     Biso  1.000000 H
   H170       1.0     0.364738      0.844451      0.521672     Biso  1.000000 H
   H171       1.0     0.151961      0.844619      0.494048     Biso  1.000000 H
   H172       1.0     0.202481      0.871953      0.525716     Biso  1.000000 H
   H173       1.0     0.240602      0.863618      0.440565     Biso  1.000000 H
   H174       1.0     0.312193      0.888422      0.458735     Biso  1.000000 H
   H175       1.0     0.094488      0.888784      0.450248     Biso  1.000000 H
   H176       1.0     0.149152      0.916056      0.481944     Biso  1.000000 H
   H177       1.0     0.215067      0.906360      0.399727     Biso  1.000000 H
   H178       1.0     0.233199      0.933944      0.429601     Biso  1.000000 H
   H179       1.0     0.041842      0.926714      0.392009     Biso  1.000000 H
   H180       1.0     0.066412      0.947073      0.437347     Biso  1.000000 H
   H181       1.0     0.176749      0.962649      0.363616     Biso  1.000000 H
   H182       1.0     0.176771      0.981931      0.406191     Biso  1.000000 H
   H183       1.0     0.999045      0.974257      0.352224     Biso  1.000000 H
   H184       1.0     0.990655      0.985765      0.397648     Biso  1.000000 H
   H185       1.0     0.115357      0.009031      0.334596     Biso  1.000000 H
   H186       1.0     0.114914      0.029759      0.378567     Biso  1.000000 H
   H187       1.0     0.956779      0.020333      0.315516     Biso  1.000000 H
   H188       1.0     0.930822      0.035612      0.360825     Biso  1.000000 H
   H189       1.0     0.065868      0.068658      0.315145     Biso  1.000000 H
   H190       1.0     0.038308      0.075991      0.360882     Biso  1.000000 H
   H191       1.0     0.915942      0.079054      0.283420     Biso  1.000000 H
   H192       1.0     0.864857      0.086229      0.330495     Biso  1.000000 H
   H193       1.0     0.038576      0.121083      0.307684     Biso  1.000000 H
   H194       1.0     0.944156      0.126252      0.341744     Biso  1.000000 H
   H195       1.0     0.926416      0.127833      0.254828     Biso  1.000000 H
   H196       1.0     0.822532      0.130142      0.285157     Biso  1.000000 H
   H197       1.0     0.908575      0.180053      0.256137     Biso  1.000000 H
   H198       1.0     0.008604      0.170896      0.283221     Biso  1.000000 H
   H199       1.0     0.802448      0.186893      0.305263     Biso  1.000000 H
   H200       1.0     0.868087      0.171006      0.340064     Biso  1.000000 H
   H201       1.0     0.862745      0.229387      0.325882     Biso  1.000000 H
   H202       1.0     0.967151      0.223680      0.301789     Biso  1.000000 H
   H203       1.0     0.015813      0.234946      0.367290     Biso  1.000000 H
   H204       1.0     0.926409      0.210470      0.388876     Biso  1.000000 H
   H205       1.0     0.092391      0.186922      0.337131     Biso  1.000000 H
   H206       1.0     0.013882      0.167254      0.366919     Biso  1.000000 H
   H207       1.0     0.139426      0.210737      0.405536     Biso  1.000000 H
   H208       1.0     0.102139      0.178544      0.426297     Biso  1.000000 H
   H209       1.0     0.277897      0.182605      0.408954     Biso  1.000000 H
   H210       1.0     0.246874      0.174366      0.360056     Biso  1.000000 H
   H211       1.0     0.188341      0.125033      0.383836     Biso  1.000000 H
   H212       1.0     0.305327      0.130354      0.388763     Biso  1.000000 H
   H213       1.0     0.160454      0.127185      0.456086     Biso  1.000000 H
   H214       1.0     0.263307      0.147196      0.460244     Biso  1.000000 H
   H215       1.0     0.276706      0.082312      0.435097     Biso  1.000000 H
   H216       1.0     0.368301      0.103058      0.453551     Biso  1.000000 H
   H217       1.0     0.310153      0.072029      0.503788     Biso  1.000000 H
   H218       1.0     0.194620      0.089806      0.499431     Biso  1.000000 H
   H219       1.0     0.274500      0.136686      0.518967     Biso  1.000000 H
   H220       1.0     0.282360      0.107056      0.553882     Biso  1.000000 H
   H221       1.0     0.451237      0.124577      0.501396     Biso  1.000000 H
   H222       1.0     0.436430      0.097416      0.539870     Biso  1.000000 H
   H223       1.0     0.414828      0.135107      0.587486     Biso  1.000000 H
   H224       1.0     0.527219      0.141280      0.566270     Biso  1.000000 H
   H225       1.0     0.366095      0.182004      0.540924     Biso  1.000000 H
   H226       1.0     0.485868      0.180925      0.526457     Biso  1.000000 H
   H227       1.0     0.430064      0.182729      0.605770     Biso  1.000000 H
   H228       1.0     0.545518      0.193879      0.588569     Biso  1.000000 H
   H229       1.0     0.339021      0.225907      0.584439     Biso  1.000000 H
   H230       1.0     0.439551      0.237710      0.556416     Biso  1.000000 H
   H231       1.0     0.430006      0.236835      0.644073     Biso  1.000000 H
   H232       1.0     0.534297      0.247723      0.619923     Biso  1.000000 H
   H233       1.0     0.328351      0.276060      0.620692     Biso  1.000000 H
   H234       1.0     0.423169      0.291476      0.594264     Biso  1.000000 H
   H235       1.0     0.433904      0.278796      0.680070     Biso  1.000000 H
   H236       1.0     0.516078      0.299416      0.654155     Biso  1.000000 H
   H237       1.0     0.307613      0.317828      0.671356     Biso  1.000000 H
   H238       1.0     0.360869      0.333723      0.633422     Biso  1.000000 H
   H239       1.0     0.438586      0.342109      0.710970     Biso  1.000000 H
   H240       1.0     0.499731      0.353981      0.672751     Biso  1.000000 H
   H241       1.0     0.297916      0.378300      0.700262     Biso  1.000000 H
   H242       1.0     0.356913      0.386899      0.657173     Biso  1.000000 H
   H243       1.0     0.442614      0.393422      0.733297     Biso  1.000000 H
   H244       1.0     0.503332      0.403383      0.689782     Biso  1.000000 H
   H245       1.0     0.315997      0.430151      0.727744     Biso  1.000000 H
   H246       1.0     0.364215      0.437796      0.683715     Biso  1.000000 H
   H247       1.0     0.462590      0.447560      0.756621     Biso  1.000000 H
   H248       1.0     0.514728      0.458457      0.713219     Biso  1.000000 H
   H249       1.0     0.326021      0.481914      0.745571     Biso  1.000000 H
   H250       1.0     0.355635      0.494747      0.702455     Biso  1.000000 H
   H251       1.0     0.479371      0.504077      0.772911     Biso  1.000000 H
   H252       1.0     0.501016      0.516249      0.730734     Biso  1.000000 H
   H253       1.0     0.338905      0.534829      0.784388     Biso  1.000000 H
   H254       1.0     0.325077      0.547050      0.735319     Biso  1.000000 H
   H255       1.0     0.393184      0.587186      0.773993     Biso  1.000000 H
   H256       1.0     0.466727      0.562842      0.796206     Biso  1.000000 H
   H257       1.0     0.505320      0.601080      0.730563     Biso  1.000000 H
   H258       1.0     0.496668      0.565138      0.711283     Biso  1.000000 H
   H259       1.0     0.640910      0.581717      0.779575     Biso  1.000000 H
   H260       1.0     0.628592      0.546108      0.757048     Biso  1.000000 H
   H261       1.0     0.709394      0.604444      0.716238     Biso  1.000000 H
   H262       1.0     0.683089      0.569831      0.694367     Biso  1.000000 H
   H263       1.0     0.855609      0.583239      0.733382     Biso  1.000000 H
   H264       1.0     0.808589      0.558235      0.763427     Biso  1.000000 H
   H265       1.0     0.910048      0.536124      0.711482     Biso  1.000000 H
   H266       1.0     0.820965      0.538348      0.676539     Biso  1.000000 H
   H267       1.0     0.804219      0.502952      0.751352     Biso  1.000000 H
   H268       1.0     0.700582      0.513247      0.721820     Biso  1.000000 H
   H269       1.0     0.878299      0.482033      0.688785     Biso  1.000000 H
   H270       1.0     0.767832      0.486778      0.667625     Biso  1.000000 H
   H271       1.0     0.814374      0.448010      0.737996     Biso  1.000000 H
   H272       1.0     0.704349      0.455783      0.722874     Biso  1.000000 H
   H273       1.0     0.842413      0.423133      0.670359     Biso  1.000000 H
   H274       1.0     0.716761      0.429056      0.666372     Biso  1.000000 H
   H275       1.0     0.792126      0.394544      0.736657     Biso  1.000000 H
   H276       1.0     0.674800      0.400370      0.720823     Biso  1.000000 H
   H277       1.0     0.824550      0.365141      0.674175     Biso  1.000000 H
   H278       1.0     0.699319      0.370769      0.664379     Biso  1.000000 H
   H279       1.0     0.742660      0.337742      0.734835     Biso  1.000000 H
   H280       1.0     0.639306      0.343550      0.709005     Biso  1.000000 H
   H281       1.0     0.820921      0.305960      0.689354     Biso  1.000000 H
   H282       1.0     0.725341      0.313567      0.657515     Biso  1.000000 H
   H283       1.0     0.685143      0.281497      0.729595     Biso  1.000000 H
   H284       1.0     0.601293      0.288902      0.698240     Biso  1.000000 H
   H285       1.0     0.770060      0.247664      0.691035     Biso  1.000000 H
   H286       1.0     0.707536      0.257961      0.652417     Biso  1.000000 H
   H287       1.0     0.618720      0.223033      0.721393     Biso  1.000000 H
   H288       1.0     0.552820      0.241076      0.687589     Biso  1.000000 H
   H289       1.0     0.714155      0.190716      0.674773     Biso  1.000000 H
   H290       1.0     0.644764      0.204248      0.637552     Biso  1.000000 H
   H291       1.0     0.576621      0.172333      0.705359     Biso  1.000000 H
   H292       1.0     0.499085      0.187891      0.668736     Biso  1.000000 H
   H293       1.0     0.665610      0.141995      0.653728     Biso  1.000000 H
   H294       1.0     0.576606      0.154893      0.624452     Biso  1.000000 H
   H295       1.0     0.533012      0.118555      0.694509     Biso  1.000000 H
   H296       1.0     0.453197      0.130250      0.656946     Biso  1.000000 H
   H297       1.0     0.614474      0.084637      0.652361     Biso  1.000000 H
   H298       1.0     0.537722      0.092811      0.613146     Biso  1.000000 H
   H299       1.0     0.460964      0.068836      0.687731     Biso  1.000000 H
   H300       1.0     0.399107      0.080367      0.646978     Biso  1.000000 H
   H301       1.0     0.560623      0.031297      0.654895     Biso  1.000000 H
   H302       1.0     0.507266      0.042046      0.609358     Biso  1.000000 H
   H303       1.0     0.436364      0.995927      0.628638     Biso  1.000000 H
   H304       1.0     0.388284      0.009351      0.674574     Biso  1.000000 H
   H305       1.0     0.323567      0.017711      0.590847     Biso  1.000000 H
   H306       1.0     0.306953      0.049253      0.617560     Biso  1.000000 H
   H307       1.0     0.204092      0.993462      0.631998     Biso  1.000000 H
   H308       1.0     0.238417      0.011186      0.672096     Biso  1.000000 H
   H309       1.0     0.073148      0.016495      0.637153     Biso  1.000000 H
   H310       1.0     0.123704      0.041702      0.606852     Biso  1.000000 H
   H311       1.0     0.100194      0.041490      0.690209     Biso  1.000000 H
   H312       1.0     0.185234      0.070527      0.672239     Biso  1.000000 H
   H313       1.0     0.977756      0.056151      0.652218     Biso  1.000000 H
   H314       1.0     0.035056      0.087009      0.631144     Biso  1.000000 H
   H315       1.0     0.960226      0.080778      0.712166     Biso  1.000000 H
   H316       1.0     0.029510      0.109356      0.699521     Biso  1.000000 H
   H317       1.0     0.831627      0.094614      0.675457     Biso  1.000000 H
   H318       1.0     0.891953      0.122850      0.647206     Biso  1.000000 H
   H319       1.0     0.782473      0.143022      0.698496     Biso  1.000000 H
   H320       1.0     0.858919      0.123181      0.734521     Biso  1.000000 H
   H321       1.0     0.911311      0.176151      0.683061     Biso  1.000000 H
   H322       1.0     0.995786      0.160353      0.711938     Biso  1.000000 H
   H323       1.0     0.804176      0.183340      0.742011     Biso  1.000000 H
   H324       1.0     0.904379      0.169709      0.763769     Biso  1.000000 H
   H325       1.0     0.903174      0.224521      0.715953     Biso  1.000000 H
   H326       1.0     0.998937      0.214969      0.750669     Biso  1.000000 H
   H327       1.0     0.788983      0.225909      0.765848     Biso  1.000000 H
   H328       1.0     0.874206      0.223656      0.800620     Biso  1.000000 H
   H329       1.0     0.883736      0.274688      0.741129     Biso  1.000000 H
   H330       1.0     0.974475      0.267355      0.771088     Biso  1.000000 H
   H331       1.0     0.785151      0.293278      0.796064     Biso  1.000000 H
   H332       1.0     0.876957      0.279894      0.827533     Biso  1.000000 H
   H333       1.0     0.905178      0.330249      0.771373     Biso  1.000000 H
   H334       1.0     0.998740      0.310405      0.801845     Biso  1.000000 H
   H335       1.0     0.818787      0.345587      0.830466     Biso  1.000000 H
   H336       1.0     0.914033      0.326890      0.857634     Biso  1.000000 H
   H337       1.0     0.947807      0.375723      0.801361     Biso  1.000000 H
   H338       1.0     0.022368      0.369906      0.837358     Biso  1.000000 H
   H339       1.0     0.823948      0.390454      0.864099     Biso  1.000000 H
   H340       1.0     0.934342      0.383706      0.889047     Biso  1.000000 H
   H341       1.0     0.903276      0.437126      0.833001     Biso  1.000000 H
   H342       1.0     0.013157      0.427516      0.855185     Biso  1.000000 H
   H343       1.0     0.824615      0.445095      0.897903     Biso  1.000000 H
   H344       1.0     0.940672      0.435026      0.916785     Biso  1.000000 H
   H345       1.0     0.902383      0.484224      0.862333     Biso  1.000000 H
   H346       1.0     0.018644      0.475238      0.874067     Biso  1.000000 H
   H347       1.0     0.857642      0.494875      0.932305     Biso  1.000000 H
   H348       1.0     0.985965      0.485562      0.942017     Biso  1.000000 H
   H349       1.0     0.923818      0.537406      0.889047     Biso  1.000000 H
   H350       1.0     0.032051      0.535328      0.909494     Biso  1.000000 H
   H351       1.0     0.897876      0.573213      0.933957     Biso  1.000000 H
   H352       1.0     0.840134      0.539364      0.949791     Biso  1.000000 H
   H353       1.0     0.030475      0.561034      0.983994     Biso  1.000000 H
   H354       1.0     0.957599      0.527804      0.998860     Biso  1.000000 H
   H355       1.0     0.938110      0.585981      0.027944     Biso  1.000000 H
   H356       1.0     0.834407      0.576260      0.002562     Biso  1.000000 H
   H357       1.0     0.916726      0.542598      0.068572     Biso  1.000000 H
   H358       1.0     0.839111      0.526794      0.038703     Biso  1.000000 H
   H359       1.0     0.804117      0.583775      0.082096     Biso  1.000000 H
   H360       1.0     0.719440      0.563481      0.056904     Biso  1.000000 H
   H361       1.0     0.702905      0.558880      0.126543     Biso  1.000000 H
   H362       1.0     0.813568      0.534588      0.122359     Biso  1.000000 H
   H363       1.0     0.612071      0.515061      0.113898     Biso  1.000000 H
   H364       1.0     0.647464      0.517697      0.069167     Biso  1.000000 H
   H365       1.0     0.743647      0.481820      0.134975     Biso  1.000000 H
   H366       1.0     0.794507      0.483857      0.090466     Biso  1.000000 H
   H367       1.0     0.592307      0.459197      0.101097     Biso  1.000000 H
   H368       1.0     0.652574      0.459077      0.057764     Biso  1.000000 H
   H369       1.0     0.731677      0.425577      0.125854     Biso  1.000000 H
   H370       1.0     0.766054      0.422841      0.078753     Biso  1.000000 H
   H371       1.0     0.561422      0.405178      0.113408     Biso  1.000000 H
   H372       1.0     0.584177      0.408459      0.068105     Biso  1.000000 H
   H373       1.0     0.700415      0.367372      0.064451     Biso  1.000000 H
   H374       1.0     0.591370      0.358096      0.084822     Biso  1.000000 H
   H375       1.0     0.761800      0.374199      0.136482     Biso  1.000000 H
   H376       1.0     0.641831      0.360021      0.147973     Biso  1.000000 H
   H377       1.0     0.707746      0.313389      0.108684     Biso  1.000000 H
   H378       1.0     0.758512      0.318134      0.153931     Biso  1.000000 H
   H379       1.0     0.851036      0.333640      0.078032     Biso  1.000000 H
   H380       1.0     0.906927      0.342833      0.123248     Biso  1.000000 H
   H381       1.0     0.913968      0.291222      0.142012     Biso  1.000000 H
   H382       1.0     0.970606      0.298296      0.099317     Biso  1.000000 H
   H383       1.0     0.779301      0.270866      0.103783     Biso  1.000000 H
   H384       1.0     0.837811      0.280047      0.060768     Biso  1.000000 H
   H385       1.0     0.926881      0.240385      0.123934     Biso  1.000000 H
   H386       1.0     0.958738      0.240916      0.072294     Biso  1.000000 H
   H387       1.0     0.771048      0.216600      0.102857     Biso  1.000000 H
   H388       1.0     0.814766      0.214020      0.053623     Biso  1.000000 H
   H389       1.0     0.884026      0.189214      0.129684     Biso  1.000000 H
   H390       1.0     0.945158      0.184554      0.086149     Biso  1.000000 H
   H391       1.0     0.744786      0.160227      0.100750     Biso  1.000000 H
   H392       1.0     0.818947      0.156247      0.059769     Biso  1.000000 H
   H393       1.0     0.881566      0.130417      0.136376     Biso  1.000000 H
   H394       1.0     0.930779      0.128829      0.090062     Biso  1.000000 H
   H395       1.0     0.729884      0.103701      0.111119     Biso  1.000000 H
   H396       1.0     0.768405      0.099840      0.070969     Biso  1.000000 H
   H397       1.0     0.864704      0.070136      0.137604     Biso  1.000000 H
   H398       1.0     0.918330      0.070295      0.092590     Biso  1.000000 H
   H399       1.0     0.712646      0.048079      0.112993     Biso  1.000000 H
   H400       1.0     0.772340      0.044486      0.068065     Biso  1.000000 H
   H401       1.0     0.937239      0.458718      0.549182     Biso  1.000000 H
   H402       1.0     0.817618      0.024790      0.107792     Biso  1.000000 H
   H403       1.0     0.516920      0.710129      0.763997     Biso  1.000000 H
   H404       1.0     0.482805      0.749233      0.766987     Biso  1.000000 H
   H405       1.0     0.599050      0.757816      0.813436     Biso  1.000000 H
   H406       1.0     0.550084      0.724086      0.822321     Biso  1.000000 H
   H407       1.0     0.737383      0.728880      0.776271     Biso  1.000000 H
   H408       1.0     0.685629      0.696179      0.801048     Biso  1.000000 H
   H409       1.0     0.760791      0.754195      0.836532     Biso  1.000000 H
   H410       1.0     0.723911      0.720722      0.862362     Biso  1.000000 H
   H411       1.0     0.887532      0.717936      0.805690     Biso  1.000000 H
   H412       1.0     0.852336      0.690690      0.834766     Biso  1.000000 H
   H413       1.0     0.921669      0.749487      0.869852     Biso  1.000000 H
   H414       1.0     0.893346      0.712778      0.889958     Biso  1.000000 H
   H415       1.0     0.033967      0.696887      0.839323     Biso  1.000000 H
   H416       1.0     0.070971      0.706916      0.884718     Biso  1.000000 H
   H417       1.0     0.049798      0.749768      0.820897     Biso  1.000000 H
   H418       1.0     0.098742      0.758497      0.862989     Biso  1.000000 H
   H419       1.0     0.163952      0.719103      0.792333     Biso  1.000000 H
   H420       1.0     0.206284      0.705607      0.835222     Biso  1.000000 H
   H421       1.0     0.308818      0.743263      0.794099     Biso  1.000000 H
   H422       1.0     0.225026      0.769756      0.803924     Biso  1.000000 H
   H423       1.0     0.357080      0.742500      0.865124     Biso  1.000000 H
   H424       1.0     0.258146      0.765187      0.872899     Biso  1.000000 H
   H425       1.0     0.438317      0.778206      0.823546     Biso  1.000000 H
   H426       1.0     0.337467      0.804149      0.823062     Biso  1.000000 H
   H427       1.0     0.446969      0.783619      0.898302     Biso  1.000000 H
   H428       1.0     0.337598      0.802826      0.898473     Biso  1.000000 H
   H429       1.0     0.443057      0.843045      0.854815     Biso  1.000000 H
   H430       1.0     0.446302      0.843043      0.904311     Biso  1.000000 H
   H431       1.0     0.587392      0.806188      0.854844     Biso  1.000000 H
   H432       1.0     0.594375      0.810364      0.901605     Biso  1.000000 H
   H433       1.0     0.618176      0.854061      0.841202     Biso  1.000000 H
   H434       1.0     0.613022      0.867854      0.890584     Biso  1.000000 H
   H435       1.0     0.785630      0.857077      0.858147     Biso  1.000000 H
   H436       1.0     0.753025      0.821157      0.858916     Biso  1.000000 H
   H437       1.0     0.762192      0.857376      0.934043     Biso  1.000000 H
   H438       1.0     0.731009      0.818765      0.933587     Biso  1.000000 H
   H439       1.0     0.922700      0.847740      0.915503     Biso  1.000000 H
   H440       1.0     0.900365      0.811135      0.901691     Biso  1.000000 H
   H441       1.0     0.896439      0.837039      0.984678     Biso  1.000000 H
   H442       1.0     0.892105      0.800803      0.975251     Biso  1.000000 H
   H443       1.0     0.051765      0.830158      0.992139     Biso  1.000000 H
   H444       1.0     0.066071      0.831384      0.946345     Biso  1.000000 H
   H445       1.0     0.032080      0.769486      0.985817     Biso  1.000000 H
   H446       1.0     0.040456      0.775908      0.934214     Biso  1.000000 H
   H447       1.0     0.219306      0.787599      0.984820     Biso  1.000000 H
   H448       1.0     0.205384      0.786904      0.934527     Biso  1.000000 H
   H449       1.0     0.164678      0.734347      0.987981     Biso  1.000000 H
   H450       1.0     0.158864      0.732123      0.939966     Biso  1.000000 H
   H451       1.0     0.348072      0.750240      0.975280     Biso  1.000000 H
   H452       1.0     0.328416      0.740762      0.928575     Biso  1.000000 H
   H453       1.0     0.401074      0.700413      0.965654     Biso  1.000000 H
   H454       1.0     0.299687      0.696309      0.990971     Biso  1.000000 H
   H455       1.0     0.293967      0.695452      0.904339     Biso  1.000000 H
   H456       1.0     0.203294      0.684846      0.931280     Biso  1.000000 H
   H457       1.0     0.395020      0.656151      0.917525     Biso  1.000000 H
   H458       1.0     0.326652      0.646136      0.957794     Biso  1.000000 H
   H459       1.0     0.240864      0.636314      0.878509     Biso  1.000000 H
   H460       1.0     0.193872      0.626719      0.922195     Biso  1.000000 H
   H461       1.0     0.389867      0.603306      0.896365     Biso  1.000000 H
   H462       1.0     0.329853      0.593752      0.939112     Biso  1.000000 H
   H463       1.0     0.254444      0.578308      0.855613     Biso  1.000000 H
   H464       1.0     0.196253      0.569561      0.903058     Biso  1.000000 H
   H465       1.0     0.385257      0.548919      0.869425     Biso  1.000000 H
   H466       1.0     0.328568      0.537723      0.917781     Biso  1.000000 H
   H467       1.0     0.247890      0.527822      0.832345     Biso  1.000000 H
   H468       1.0     0.187405      0.516141      0.877854     Biso  1.000000 H
   H469       1.0     0.374689      0.499519      0.839750     Biso  1.000000 H
   H470       1.0     0.352441      0.489141      0.886711     Biso  1.000000 H
   H471       1.0     0.223458      0.475602      0.816483     Biso  1.000000 H
   H472       1.0     0.195846      0.464189      0.864099     Biso  1.000000 H
   H473       1.0     0.390048      0.443704      0.824656     Biso  1.000000 H
   H474       1.0     0.329541      0.427318      0.861935     Biso  1.000000 H
   H475       1.0     0.240929      0.432436      0.784188     Biso  1.000000 H
   H476       1.0     0.185735      0.416594      0.820925     Biso  1.000000 H
   H477       1.0     0.368802      0.389768      0.789542     Biso  1.000000 H
   H478       1.0     0.302859      0.378030      0.827704     Biso  1.000000 H
   H479       1.0     0.214987      0.382393      0.745941     Biso  1.000000 H
   H480       1.0     0.159568      0.367711      0.786210     Biso  1.000000 H
   H481       1.0     0.345031      0.339401      0.758842     Biso  1.000000 H
   H482       1.0     0.273962      0.327216      0.797004     Biso  1.000000 H
   H483       1.0     0.196115      0.327086      0.714786     Biso  1.000000 H
   H484       1.0     0.129954      0.320409      0.755966     Biso  1.000000 H
   H485       1.0     0.311678      0.285398      0.732386     Biso  1.000000 H
   H486       1.0     0.240740      0.276510      0.768781     Biso  1.000000 H
   H487       1.0     0.194837      0.276246      0.685510     Biso  1.000000 H
   H488       1.0     0.093777      0.269399      0.714188     Biso  1.000000 H
   H489       1.0     0.263612      0.225857      0.710628     Biso  1.000000 H
   H490       1.0     0.151040      0.221648      0.734521     Biso  1.000000 H
   H491       1.0     0.167603      0.233595      0.651990     Biso  1.000000 H
   H492       1.0     0.067683      0.218628      0.676397     Biso  1.000000 H
   H493       1.0     0.259279      0.183776      0.670587     Biso  1.000000 H
   H494       1.0     0.150393      0.173248      0.693142     Biso  1.000000 H
   H495       1.0     0.062892      0.170381      0.634077     Biso  1.000000 H
   H496       1.0     0.154945      0.146090      0.630660     Biso  1.000000 H
   H497       1.0     0.144420      0.208817      0.595289     Biso  1.000000 H
   H498       1.0     0.241698      0.182353      0.588967     Biso  1.000000 H
   H499       1.0     0.027289      0.174235      0.564760     Biso  1.000000 H
   H500       1.0     0.118187      0.148655      0.556843     Biso  1.000000 H
   H501       1.0     0.201501      0.187064      0.514182     Biso  1.000000 H
   H502       1.0     0.080777      0.179646      0.500142     Biso  1.000000 H
   H503       1.0     0.153377      0.233628      0.539130     Biso  1.000000 H
   H504       1.0     0.024582      0.223705      0.539272     Biso  1.000000 H
   H505       1.0     0.150292      0.233948      0.471464     Biso  1.000000 H
   H506       1.0     0.034932      0.220568      0.469727     Biso  1.000000 H
   H507       1.0     0.974555      0.268570      0.500057     Biso  1.000000 H
   H508       1.0     0.033517      0.277114      0.460045     Biso  1.000000 H
   H509       1.0     0.096543      0.284827      0.539927     Biso  1.000000 H
   H510       1.0     0.188254      0.290644      0.503047     Biso  1.000000 H
   H511       1.0     0.995408      0.325003      0.503674     Biso  1.000000 H
   H512       1.0     0.084740      0.331625      0.473031     Biso  1.000000 H
   H513       1.0     0.071356      0.367624      0.524349     Biso  1.000000 H
   H514       1.0     0.092093      0.341540      0.559121     Biso  1.000000 H
   H515       1.0     0.234062      0.355308      0.498832     Biso  1.000000 H
   H516       1.0     0.244732      0.327558      0.530586     Biso  1.000000 H
   H517       1.0     0.213956      0.396903      0.553938     Biso  1.000000 H
   H518       1.0     0.241052      0.367986      0.584638     Biso  1.000000 H
   H519       1.0     0.406859      0.358861      0.550094     Biso  1.000000 H
   H520       1.0     0.410611      0.394016      0.571510     Biso  1.000000 H
   H521       1.0     0.345459      0.383704      0.489434     Biso  1.000000 H
   H522       1.0     0.389874      0.415841      0.508800     Biso  1.000000 H
   H523       1.0     0.516426      0.358701      0.502307     Biso  1.000000 H
   H524       1.0     0.551289      0.393476      0.514296     Biso  1.000000 H
   H525       1.0     0.480032      0.413795      0.449080     Biso  1.000000 H
   H526       1.0     0.592219      0.398299      0.446973     Biso  1.000000 H
   H527       1.0     0.414386      0.358452      0.437034     Biso  1.000000 H
   H528       1.0     0.529528      0.346289      0.425472     Biso  1.000000 H
   H529       1.0     0.558025      0.388581      0.380589     Biso  1.000000 H
   H530       1.0     0.477012      0.357725      0.367062     Biso  1.000000 H
   H531       1.0     0.417042      0.420826      0.385943     Biso  1.000000 H
   H532       1.0     0.336241      0.392338      0.386399     Biso  1.000000 H
   H533       1.0     0.456122      0.411638      0.318734     Biso  1.000000 H
   H534       1.0     0.378964      0.381048      0.316626     Biso  1.000000 H
   H535       1.0     0.307642      0.439948      0.302501     Biso  1.000000 H
   H536       1.0     0.309616      0.442921      0.349149     Biso  1.000000 H
   H537       1.0     0.196804      0.393789      0.357493     Biso  1.000000 H
   H538       1.0     0.143607      0.425456      0.337359     Biso  1.000000 H
   H539       1.0     0.220155      0.372737      0.286012     Biso  1.000000 H
   H540       1.0     0.171458      0.402545      0.270234     Biso  1.000000 H
   H541       1.0     0.053899      0.365501      0.324743     Biso  1.000000 H
   H542       1.0     0.028683      0.400703      0.302387     Biso  1.000000 H
   H543       1.0     0.086714      0.350763      0.251496     Biso  1.000000 H
   H544       1.0     0.002421      0.380839      0.241386     Biso  1.000000 H
   H545       1.0     0.971927      0.326957      0.297517     Biso  1.000000 H
   H546       1.0     0.883867      0.352628      0.283335     Biso  1.000000 H
   H547       1.0     0.995938      0.309632      0.230194     Biso  1.000000 H
   H548       1.0     0.897244      0.332783      0.216695     Biso  1.000000 H
   H549       1.0     0.854070      0.282037      0.272171     Biso  1.000000 H
   H550       1.0     0.770830      0.306843      0.255511     Biso  1.000000 H
   H551       1.0     0.896003      0.264754      0.204802     Biso  1.000000 H
   H552       1.0     0.792177      0.284119      0.191750     Biso  1.000000 H
   H553       1.0     0.772804      0.244066      0.254913     Biso  1.000000 H
   H554       1.0     0.678414      0.256247      0.228798     Biso  1.000000 H
   H555       1.0     0.829225      0.208536      0.206573     Biso  1.000000 H
   H556       1.0     0.768950      0.226044      0.172951     Biso  1.000000 H
   H557       1.0     0.684199      0.192098      0.242610     Biso  1.000000 H
   H558       1.0     0.608871      0.206850      0.206644     Biso  1.000000 H
   H559       1.0     0.758338      0.160553      0.198989     Biso  1.000000 H
   H560       1.0     0.701337      0.175756      0.158906     Biso  1.000000 H
   H561       1.0     0.605466      0.147072      0.231959     Biso  1.000000 H
   H562       1.0     0.540430      0.157690      0.193211     Biso  1.000000 H
   H563       1.0     0.689948      0.106963      0.188330     Biso  1.000000 H
   H564       1.0     0.632141      0.124021      0.149761     Biso  1.000000 H
   H565       1.0     0.542469      0.090562      0.218346     Biso  1.000000 H
   H566       1.0     0.468251      0.111342      0.183286     Biso  1.000000 H
   H567       1.0     0.597975      0.057757      0.162736     Biso  1.000000 H
   H568       1.0     0.510205      0.078107      0.135841     Biso  1.000000 H
   H569       1.0     0.458184      0.028345      0.155523     Biso  1.000000 H
   H570       1.0     0.478696      0.040670      0.204654     Biso  1.000000 H
   H571       1.0     0.332379      0.069998      0.150636     Biso  1.000000 H
   H572       1.0     0.343361      0.072553      0.198648     Biso  1.000000 H
   H573       1.0     0.278673      0.015321      0.161899     Biso  1.000000 H
   H574       1.0     0.297408      0.022089      0.211335     Biso  1.000000 H
   H575       1.0     0.143142      0.047616      0.158977     Biso  1.000000 H
   H576       1.0     0.185931      0.066529      0.200616     Biso  1.000000 H
   H577       1.0     0.106225      0.001957      0.198226     Biso  1.000000 H
   H578       1.0     0.141277      0.021399      0.239592     Biso  1.000000 H
   H579       1.0     0.995278      0.050885      0.188404     Biso  1.000000 H
   H580       1.0     0.005810      0.053494      0.238766     Biso  1.000000 H
   H581       1.0     0.921945      0.996628      0.203965     Biso  1.000000 H
   H582       1.0     0.933341      0.003981      0.250784     Biso  1.000000 H
   H583       1.0     0.810440      0.045468      0.197019     Biso  1.000000 H
   H584       1.0     0.822460      0.049354      0.243037     Biso  1.000000 H
   H585       1.0     0.675830      0.027448      0.230849     Biso  1.000000 H
   H586       1.0     0.723243      0.997694      0.207362     Biso  1.000000 H
   H587       1.0     0.728106      0.013844      0.291309     Biso  1.000000 H
   H588       1.0     0.797868      0.983854      0.275731     Biso  1.000000 H
   H589       1.0     0.577064      0.990103      0.275161     Biso  1.000000 H
   H590       1.0     0.640271      0.959177      0.253888     Biso  1.000000 H
   H591       1.0     0.567424      0.949007      0.319189     Biso  1.000000 H
   H592       1.0     0.653728      0.975131      0.335650     Biso  1.000000 H
   H593       1.0     0.715026      0.920263      0.290056     Biso  1.000000 H
   H594       1.0     0.792707      0.940959      0.314889     Biso  1.000000 H
   H595       1.0     0.643145      0.899047      0.348921     Biso  1.000000 H
   H596       1.0     0.705489      0.925100      0.376090     Biso  1.000000 H
   H597       1.0     0.805801      0.877879      0.332005     Biso  1.000000 H
   H598       1.0     0.865967      0.907689      0.356980     Biso  1.000000 H
   H599       1.0     0.747044      0.859282      0.385744     Biso  1.000000 H
   H600       1.0     0.789622      0.889007      0.413311     Biso  1.000000 H
   H601       1.0     0.922279      0.846647      0.372530     Biso  1.000000 H
   H602       1.0     0.956720      0.874596      0.405081     Biso  1.000000 H
   H603       1.0     0.883395      0.844338      0.454804     Biso  1.000000 H
   H604       1.0     0.960836      0.824660      0.432876     Biso  1.000000 H
   H605       1.0     0.757409      0.808140      0.418352     Biso  1.000000 H
   H606       1.0     0.857228      0.799883      0.390300     Biso  1.000000 H
   H607       1.0     0.859108      0.776598      0.470582     Biso  1.000000 H
   H608       1.0     0.947502      0.770206      0.440537     Biso  1.000000 H
   H609       1.0     0.740809      0.747780      0.431993     Biso  1.000000 H
   H610       1.0     0.836048      0.740760      0.397363     Biso  1.000000 H
   H611       1.0     0.843088      0.718044      0.474084     Biso  1.000000 H
   H612       1.0     0.934038      0.713498      0.440594     Biso  1.000000 H
   H613       1.0     0.823810      0.666344      0.444296     Biso  1.000000 H
   H614       1.0     0.741121      0.689386      0.421114     Biso  1.000000 H
   H615       1.0     0.884397      0.698574      0.366549     Biso  1.000000 H
   H616       1.0     0.831852      0.664298      0.373612     Biso  1.000000 H
   H617       1.0     0.019065      0.677567      0.413852     Biso  1.000000 H
   H618       1.0     0.957367      0.642014      0.404910     Biso  1.000000 H
   H619       1.0     0.979178      0.646055      0.337131     Biso  1.000000 H
   H620       1.0     0.082541      0.645259      0.359259     Biso  1.000000 H
   H621       1.0     0.106465      0.685084      0.310275     Biso  1.000000 H
   H622       1.0     0.014746      0.706435      0.331663     Biso  1.000000 H
   H623       1.0     0.200869      0.685280      0.369084     Biso  1.000000 H
   H624       1.0     0.121352      0.708440      0.392094     Biso  1.000000 H
   H625       1.0     0.257536      0.736618      0.362705     Biso  1.000000 H
   H626       1.0     0.226390      0.724379      0.315658     Biso  1.000000 H
   H627       1.0     0.083252      0.750197      0.312952     Biso  1.000000 H
   H628       1.0     0.182650      0.772657      0.319987     Biso  1.000000 H
   H629       1.0     0.026389      0.784990      0.360540     Biso  1.000000 H
   H630       1.0     0.061353      0.751175      0.386570     Biso  1.000000 H
   H631       1.0     0.157565      0.813633      0.383693     Biso  1.000000 H
   H632       1.0     0.234941      0.784716      0.387566     Biso  1.000000 H
   H633       1.0     0.186860      0.807083      0.451700     Biso  1.000000 H
   H634       1.0     0.075253      0.792692      0.444239     Biso  1.000000 H
   H635       1.0     0.138990      0.741028      0.439227     Biso  1.000000 H
   H636       1.0     0.158066      0.756752      0.481774     Biso  1.000000 H
   H637       1.0     0.325774      0.750517      0.423364     Biso  1.000000 H
   H638       1.0     0.329897      0.772043      0.465883     Biso  1.000000 H
   H639       1.0     0.281257      0.707433      0.471351     Biso  1.000000 H
   H640       1.0     0.310611      0.731154      0.505411     Biso  1.000000 H
   H641       1.0     0.452682      0.713340      0.440394     Biso  1.000000 H
   H642       1.0     0.486673      0.733486      0.484137     Biso  1.000000 H
   H643       1.0     0.402518      0.669368      0.469129     Biso  1.000000 H
   H644       1.0     0.428206      0.684711      0.512331     Biso  1.000000 H
   H645       1.0     0.571126      0.671388      0.448454     Biso  1.000000 H
   H646       1.0     0.609008      0.691470      0.489377     Biso  1.000000 H
   H647       1.0     0.526421      0.623993      0.481460     Biso  1.000000 H
   H648       1.0     0.535821      0.640908      0.526684     Biso  1.000000 H
   H649       1.0     0.678959      0.608487      0.502193     Biso  1.000000 H
   H650       1.0     0.702832      0.640550      0.474312     Biso  1.000000 H
   H651       1.0     0.668115      0.647411      0.561514     Biso  1.000000 H
   H652       1.0     0.720180      0.672813      0.527140     Biso  1.000000 H
   H653       1.0     0.810251      0.613902      0.550521     Biso  1.000000 H
   H654       1.0     0.857112      0.637382      0.515207     Biso  1.000000 H
   H655       1.0     0.817313      0.657057      0.599447     Biso  1.000000 H
   H656       1.0     0.872645      0.679948      0.561742     Biso  1.000000 H
   H657       1.0     0.972254      0.658179      0.614256     Biso  1.000000 H
   H658       1.0     0.945513      0.621756      0.593980     Biso  1.000000 H
   H659       1.0     0.044971      0.673160      0.553967     Biso  1.000000 H
   H660       1.0     0.018760      0.638735      0.533747     Biso  1.000000 H
   H661       1.0     0.147505      0.639995      0.601042     Biso  1.000000 H
   H662       1.0     0.160439      0.615948      0.562511     Biso  1.000000 H
   H663       1.0     0.205159      0.683096      0.555590     Biso  1.000000 H
   H664       1.0     0.232451      0.657772      0.520077     Biso  1.000000 H
   H665       1.0     0.371953      0.671743      0.562511     Biso  1.000000 H
   H666       1.0     0.316417      0.658265      0.601213     Biso  1.000000 H
   H667       1.0     0.398577      0.625293      0.534402     Biso  1.000000 H
   H668       1.0     0.324003      0.604595      0.561001     Biso  1.000000 H
   H669       1.0     0.498323      0.632682      0.597112     Biso  1.000000 H
   H670       1.0     0.412034      0.611653      0.619781     Biso  1.000000 H
   H671       1.0     0.544328      0.590673      0.554451     Biso  1.000000 H
   H672       1.0     0.451978      0.568153      0.576437     Biso  1.000000 H
   H673       1.0     0.614438      0.596320      0.626445     Biso  1.000000 H
   H674       1.0     0.520164      0.571695      0.634761     Biso  1.000000 H
   H675       1.0     0.592989      0.536884      0.586575     Biso  1.000000 H
   H676       1.0     0.665363      0.541116      0.628068     Biso  1.000000 H
   H677       1.0     0.686530      0.582873      0.557726     Biso  1.000000 H
   H678       1.0     0.767810      0.579410      0.593780     Biso  1.000000 H
   H679       1.0     0.737607      0.526271      0.537791     Biso  1.000000 H
   H680       1.0     0.811768      0.526214      0.580110     Biso  1.000000 H
   H681       1.0     0.839539      0.568529      0.510224     Biso  1.000000 H
   H682       1.0     0.917525      0.562745      0.551347     Biso  1.000000 H
   H683       1.0     0.875432      0.527384      0.482400     Biso  1.000000 H
   H684       1.0     0.899284      0.503877      0.523153     Biso  1.000000 H
   H685       1.0     0.070586      0.520843      0.522043     Biso  1.000000 H
   H686       1.0     0.035897      0.510861      0.476135     Biso  1.000000 H
   H687       1.0     0.062420      0.575720      0.506066     Biso  1.000000 H
   H688       1.0     0.994399      0.572837      0.466765     Biso  1.000000 H
   H689       1.0     0.207670      0.555195      0.483368     Biso  1.000000 H
   H690       1.0     0.143919      0.548935      0.436008     Biso  1.000000 H
   H691       1.0     0.188842      0.607372      0.479752     Biso  1.000000 H
   H692       1.0     0.115037      0.611066      0.439939     Biso  1.000000 H
   H693       1.0     0.332430      0.585776      0.439027     Biso  1.000000 H
   H694       1.0     0.242395      0.581807      0.402489     Biso  1.000000 H
   H695       1.0     0.292856      0.643514      0.431908     Biso  1.000000 H
   H696       1.0     0.228996      0.635540      0.393405     Biso  1.000000 H
   H697       1.0     0.445293      0.624504      0.406619     Biso  1.000000 H
   H698       1.0     0.390738      0.607147      0.367546     Biso  1.000000 H
   H699       1.0     0.380176      0.677742      0.382611     Biso  1.000000 H
   H700       1.0     0.369114      0.656850      0.343396     Biso  1.000000 H
   H701       1.0     0.556275      0.664059      0.388335     Biso  1.000000 H
   H702       1.0     0.552319      0.644177      0.346643     Biso  1.000000 H
   H703       1.0     0.472055      0.705897      0.350801     Biso  1.000000 H
   H704       1.0     0.531683      0.687274      0.312668     Biso  1.000000 H
   H705       1.0     0.625275      0.714060      0.384690     Biso  1.000000 H
   H706       1.0     0.688663      0.689509      0.349604     Biso  1.000000 H
   H707       1.0     0.674016      0.729825      0.303013     Biso  1.000000 H
   H708       1.0     0.742572      0.740976      0.343140     Biso  1.000000 H
   H709       1.0     0.620295      0.780421      0.320784     Biso  1.000000 H
   H710       1.0     0.530878      0.754034      0.323404     Biso  1.000000 H
   H711       1.0     0.616891      0.786585      0.390898     Biso  1.000000 H
   H712       1.0     0.547456      0.752017      0.391440     Biso  1.000000 H
   H713       1.0     0.414422      0.773833      0.369112     Biso  1.000000 H
   H714       1.0     0.450606      0.790135      0.408726     Biso  1.000000 H
   H715       1.0     0.506235      0.815502      0.330894     Biso  1.000000 H
   H716       1.0     0.524563      0.836499      0.376972     Biso  1.000000 H
   H717       1.0     0.331007      0.815353      0.340377     Biso  1.000000 H
   H718       1.0     0.339057      0.839832      0.380618     Biso  1.000000 H
   H719       1.0     0.404202      0.861913      0.301903     Biso  1.000000 H
   H720       1.0     0.407846      0.879932      0.344678     Biso  1.000000 H
   H721       1.0     0.234962      0.849629      0.303042     Biso  1.000000 H
   H722       1.0     0.215103      0.869703      0.348579     Biso  1.000000 H
   H723       1.0     0.261507      0.898130      0.272513     Biso  1.000000 H
   H724       1.0     0.267219      0.917924      0.314917     Biso  1.000000 H
   H725       1.0     0.079507      0.888308      0.290597     Biso  1.000000 H
   H726       1.0     0.108178      0.911354      0.328872     Biso  1.000000 H
   H727       1.0     0.156796      0.934560      0.249417     Biso  1.000000 H
   H728       1.0     0.127231      0.956837      0.287863     Biso  1.000000 H
   H729       1.0     0.956270      0.934269      0.276870     Biso  1.000000 H
   H730       1.0     0.987331      0.955546      0.238025     Biso  1.000000 H
   H731       1.0     0.982053      0.885285      0.244034     Biso  1.000000 H
   H732       1.0     0.042314      0.902811      0.204446     Biso  1.000000 H
   H733       1.0     0.859028      0.882459      0.200997     Biso  1.000000 H
   H734       1.0     0.828920      0.910706      0.232842     Biso  1.000000 H
   H735       1.0     0.900801      0.916755      0.152527     Biso  1.000000 H
   H736       1.0     0.900982      0.948377      0.182429     Biso  1.000000 H
   H737       1.0     0.719411      0.910124      0.160054     Biso  1.000000 H
   H738       1.0     0.705162      0.937256      0.192636     Biso  1.000000 H
   H739       1.0     0.794798      0.947433      0.112235     Biso  1.000000 H
   H740       1.0     0.768456      0.977148      0.139780     Biso  1.000000 H
   H741       1.0     0.612979      0.935479      0.107556     Biso  1.000000 H
   H742       1.0     0.589381      0.963807      0.138111     Biso  1.000000 H
   H743       1.0     0.696408      0.969980      0.064590     Biso  1.000000 H
   H744       1.0     0.635168      0.000093      0.086331     Biso  1.000000 H
   H745       1.0     0.564637      0.977153      0.029152     Biso  1.000000 H
   H746       1.0     0.523743      0.946461      0.055967     Biso  1.000000 H
   H747       1.0     0.458293      0.010981      0.081903     Biso  1.000000 H
   H748       1.0     0.436016      0.976888      0.102037     Biso  1.000000 H
   H749       1.0     0.322123      0.963571      0.047062     Biso  1.000000 H
   H750       1.0     0.305000      0.002432      0.062862     Biso  1.000000 H
   H751       1.0     0.431298      0.977227      0.994930     Biso  1.000000 H
   H752       1.0     0.415779      0.013025      0.004800     Biso  1.000000 H
   H753       1.0     0.245001      0.971653      0.987839     Biso  1.000000 H
   H754       1.0     0.235217      0.010914      0.994930     Biso  1.000000 H
   H755       1.0     0.345248      0.981320      0.930625     Biso  1.000000 H
   H756       1.0     0.358096      0.020605      0.941561     Biso  1.000000 H
   H757       1.0     0.166145      0.986750      0.920288     Biso  1.000000 H
   H758       1.0     0.181743      0.025262      0.925841     Biso  1.000000 H
   H759       1.0     0.286375      0.996039      0.855897     Biso  1.000000 H
   H760       1.0     0.303527      0.031349      0.873810     Biso  1.000000 H
   H761       1.0     0.108171      0.003754      0.853676     Biso  1.000000 H
   H762       1.0     0.134222      0.041279      0.869311     Biso  1.000000 H
   H763       1.0     0.121918      0.035660      0.791963     Biso  1.000000 H
   H764       1.0     0.211714      0.009837      0.795978     Biso  1.000000 H
   H765       1.0     0.222383      0.079281      0.817764     Biso  1.000000 H
   H766       1.0     0.323807      0.056626      0.807341     Biso  1.000000 H
   H767       1.0     0.169374      0.070385      0.751609     Biso  1.000000 H
   H768       1.0     0.282441      0.053566      0.744916     Biso  1.000000 H
   H769       1.0     0.377215      0.093535      0.752691     Biso  1.000000 H
   H770       1.0     0.282136      0.104009      0.719513     Biso  1.000000 H
   H771       1.0     0.295825      0.128735      0.803981     Biso  1.000000 H
   H772       1.0     0.205791      0.135499      0.769778     Biso  1.000000 H
   H773       1.0     0.403150      0.150600      0.744460     Biso  1.000000 H
   H774       1.0     0.289322      0.162842      0.730876     Biso  1.000000 H
   H775       1.0     0.371314      0.173172      0.805775     Biso  1.000000 H
   H776       1.0     0.272024      0.193038      0.783903     Biso  1.000000 H
   H777       1.0     0.487254      0.195777      0.770290     Biso  1.000000 H
   H778       1.0     0.420766      0.217645      0.740530     Biso  1.000000 H
   H779       1.0     0.439457      0.224519      0.824941     Biso  1.000000 H
   H780       1.0     0.346831      0.240498      0.799082     Biso  1.000000 H
   H781       1.0     0.569805      0.251280      0.793586     Biso  1.000000 H
   H782       1.0     0.501880      0.260308      0.755681     Biso  1.000000 H
   H783       1.0     0.473637      0.283129      0.836389     Biso  1.000000 H
   H784       1.0     0.388966      0.289907      0.799196     Biso  1.000000 H
   H785       1.0     0.615461      0.303918      0.797516     Biso  1.000000 H
   H786       1.0     0.532881      0.315766      0.764253     Biso  1.000000 H
   H787       1.0     0.550418      0.338266      0.850543     Biso  1.000000 H
   H788       1.0     0.453139      0.346873      0.819359     Biso  1.000000 H
   H789       1.0     0.663723      0.361026      0.803440     Biso  1.000000 H
   H790       1.0     0.557829      0.371163      0.778606     Biso  1.000000 H
   H791       1.0     0.588510      0.391077      0.858603     Biso  1.000000 H
   H792       1.0     0.491319      0.398562      0.829070     Biso  1.000000 H
   H793       1.0     0.693607      0.419958      0.809506     Biso  1.000000 H
   H794       1.0     0.579662      0.427932      0.787406     Biso  1.000000 H
   H795       1.0     0.611368      0.441680      0.870023     Biso  1.000000 H
   H796       1.0     0.540495      0.462165      0.842427     Biso  1.000000 H
   H797       1.0     0.750114      0.466995      0.831633     Biso  1.000000 H
   H798       1.0     0.661038      0.480929      0.801389     Biso  1.000000 H
   H799       1.0     0.702563      0.495719      0.885686     Biso  1.000000 H
   H800       1.0     0.598868      0.511074      0.860739     Biso  1.000000 H
   H801       1.0     0.805816      0.522740      0.837557     Biso  1.000000 H
   H802       1.0     0.691458      0.534752      0.816511     Biso  1.000000 H
   H803       1.0     0.589868      0.739779      0.742296     Biso  1.000000 H
   H804       1.0     0.737615      0.547493      0.862590     Biso  1.000000 H
   H805       1.0     0.947321      0.865992      0.505781     Biso  1.000000 H
   H806       1.0     0.984731      0.873136      0.550777     Biso  1.000000 H
   H807       1.0     0.858796      0.917967      0.549781     Biso  1.000000 H
   H808       1.0     0.967768      0.922095      0.519593     Biso  1.000000 H
   H809       1.0     0.763085      0.911021      0.492396     Biso  1.000000 H
   H810       1.0     0.858810      0.902712      0.463092     Biso  1.000000 H
   H811       1.0     0.790014      0.961894      0.505952     Biso  1.000000 H
   H812       1.0     0.908088      0.959692      0.492225     Biso  1.000000 H
   H813       1.0     0.726400      0.949056      0.444040     Biso  1.000000 H
   H814       1.0     0.836904      0.956322      0.420915     Biso  1.000000 H
   H815       1.0     0.743828      0.007824      0.462722     Biso  1.000000 H
   H816       1.0     0.861314      0.005144      0.446033     Biso  1.000000 H
   H817       1.0     0.667730      0.995875      0.403201     Biso  1.000000 H
   H818       1.0     0.775737      0.994946      0.377143     Biso  1.000000 H
   H819       1.0     0.711455      0.050435      0.425443     Biso  1.000000 H
   H820       1.0     0.803058      0.051184      0.389902     Biso  1.000000 H
   H821       1.0     0.601772      0.039829      0.363331     Biso  1.000000 H
   H822       1.0     0.706011      0.044263      0.338669     Biso  1.000000 H
   H823       1.0     0.714591      0.101418      0.352766     Biso  1.000000 H
   H824       1.0     0.602316      0.089845      0.338583     Biso  1.000000 H
   H825       1.0     0.651631      0.097452      0.422567     Biso  1.000000 H
   H826       1.0     0.538993      0.087682      0.405650     Biso  1.000000 H
   H827       1.0     0.658432      0.143791      0.384633     Biso  1.000000 H
   H828       1.0     0.552305      0.134266      0.361281     Biso  1.000000 H
   H829       1.0     0.576425      0.144700      0.447742     Biso  1.000000 H
   H830       1.0     0.460717      0.140843      0.427266     Biso  1.000000 H
   H831       1.0     0.597598      0.193843      0.405052     Biso  1.000000 H
   H832       1.0     0.479596      0.183156      0.387538     Biso  1.000000 H
   H833       1.0     0.507513      0.198273      0.472803     Biso  1.000000 H
   H834       1.0     0.405835      0.191842      0.446831     Biso  1.000000 H
   H835       1.0     0.519300      0.248037      0.429117     Biso  1.000000 H
   H836       1.0     0.420657      0.233932      0.404711     Biso  1.000000 H
   H837       1.0     0.415133      0.245427      0.490602     Biso  1.000000 H
   H838       1.0     0.312846      0.234076      0.460870     Biso  1.000000 H
   H839       1.0     0.353385      0.294827      0.477530     Biso  1.000000 H
   H840       1.0     0.437773      0.292592      0.442530     Biso  1.000000 H
   H841       1.0     0.216671      0.275046      0.431794     Biso  1.000000 H
   H842       1.0     0.304281      0.271392      0.397221     Biso  1.000000 H
   H843       1.0     0.253914      0.333816      0.433218     Biso  1.000000 H
   H844       1.0     0.333039      0.323607      0.396081     Biso  1.000000 H
   H845       1.0     0.162065      0.343336      0.387851     Biso  1.000000 H
   H846       1.0     0.119842      0.307352      0.388364     Biso  1.000000 H
   H847       1.0     0.218035      0.335198      0.324344     Biso  1.000000 H
   H848       1.0     0.299135      0.312883      0.339808     Biso  1.000000 H
   H849       1.0     0.097101      0.291162      0.319588     Biso  1.000000 H
   H850       1.0     0.162464      0.266872      0.343795     Biso  1.000000 H
   H851       1.0     0.223988      0.295965      0.269864     Biso  1.000000 H
   H852       1.0     0.285090      0.268513      0.289628     Biso  1.000000 H
   H853       1.0     0.084065      0.262478      0.255369     Biso  1.000000 H
   H854       1.0     0.156280      0.232081      0.275361     Biso  1.000000 H
   H855       1.0     0.236407      0.278617      0.215168     Biso  1.000000 H
   H856       1.0     0.256005      0.237363      0.216894     Biso  1.000000 H
   H857       1.0     0.165230      0.245499      0.162001     Biso  1.000000 H
   H858       1.0     0.070100      0.263827      0.189145     Biso  1.000000 H
   H859       1.0     0.036587      0.214920      0.221280     Biso  1.000000 H
   H860       1.0     0.022956      0.212802      0.170653     Biso  1.000000 H
   H861       1.0     0.173229      0.190100      0.228542     Biso  1.000000 H
   H862       1.0     0.218261      0.195651      0.184320     Biso  1.000000 H
   H863       1.0     0.166820      0.143935      0.202515     Biso  1.000000 H
   H864       1.0     0.050008      0.151027      0.190190     Biso  1.000000 H
   H865       1.0     0.230462      0.154891      0.143151     Biso  1.000000 H
   H866       1.0     0.112627      0.168573      0.123703     Biso  1.000000 H
   H867       1.0     0.178179      0.103103      0.147662     Biso  1.000000 H
   H868       1.0     0.056171      0.112803      0.138900     Biso  1.000000 H
   H869       1.0     0.227515      0.116947      0.078864     Biso  1.000000 H
   H870       1.0     0.105703      0.125227      0.071813     Biso  1.000000 H
   H871       1.0     0.206023      0.068312      0.096617     Biso  1.000000 H
   H872       1.0     0.090213      0.067377      0.095302     Biso  1.000000 H
   H873       1.0     0.195157      0.046100      0.042704     Biso  1.000000 H
   H874       1.0     0.208941      0.082442      0.021619     Biso  1.000000 H
   H875       1.0     0.098473      0.057109      0.986215     Biso  1.000000 H
   H876       1.0     0.026853      0.045794      0.025293     Biso  1.000000 H
   H877       1.0     0.051257      0.106709      0.992993     Biso  1.000000 H
   H878       1.0     0.995125      0.102066      0.037718     Biso  1.000000 H
   H879       1.0     0.927019      0.075226      0.960784     Biso  1.000000 H
   H880       1.0     0.871128      0.073821      0.008704     Biso  1.000000 H
   H881       1.0     0.893615      0.131946      0.001752     Biso  1.000000 H
   H882       1.0     0.787241      0.112365      0.992253     Biso  1.000000 H
   H883       1.0     0.946493      0.127406      0.934157     Biso  1.000000 H
   H884       1.0     0.829980      0.114089      0.920658     Biso  1.000000 H
   H885       1.0     0.761604      0.162590      0.952298     Biso  1.000000 H
   H886       1.0     0.823534      0.164308      0.904653     Biso  1.000000 H
   H887       1.0     0.932092      0.177123      0.979722     Biso  1.000000 H
   H888       1.0     0.976667      0.180428      0.932192     Biso  1.000000 H
   H889       1.0     0.795640      0.215552      0.959958     Biso  1.000000 H
   H890       1.0     0.861002      0.221580      0.916300     Biso  1.000000 H
   H891       1.0     0.942712      0.232817      0.994674     Biso  1.000000 H
   H892       1.0     0.009535      0.236990      0.951870     Biso  1.000000 H
   H893       1.0     0.831373      0.273472      0.975451     Biso  1.000000 H
   H894       1.0     0.908168      0.280150      0.934983     Biso  1.000000 H
   H895       1.0     0.965619      0.284782      0.020984     Biso  1.000000 H
   H896       1.0     0.046110      0.289923      0.979324     Biso  1.000000 H
   H897       1.0     0.867680      0.326512      0.004688     Biso  1.000000 H
   H898       1.0     0.941485      0.335403      0.962066     Biso  1.000000 H
   H899       1.0     0.018933      0.333804      0.044126     Biso  1.000000 H
   H900       1.0     0.075522      0.343429      0.003552     Biso  1.000000 H
   H901       1.0     0.901026      0.379022      0.035266     Biso  1.000000 H
   H902       1.0     0.983497      0.389818      0.998803     Biso  1.000000 H
   H903       1.0     0.006043      0.385203      0.079923     Biso  1.000000 H
   H904       1.0     0.103736      0.391999      0.047925     Biso  1.000000 H
   H905       1.0     0.916842      0.427709      0.062805     Biso  1.000000 H
   H906       1.0     0.997114      0.439047      0.025221     Biso  1.000000 H
   H907       1.0     0.061832      0.432831      0.108883     Biso  1.000000 H
   H908       1.0     0.142954      0.440477      0.076919     Biso  1.000000 H
   H909       1.0     0.963384      0.479803      0.099983     Biso  1.000000 H
   H910       1.0     0.034519      0.489600      0.060435     Biso  1.000000 H
   H911       1.0     0.163154      0.502633      0.107320     Biso  1.000000 H
   H912       1.0     0.058588      0.515880      0.126551     Biso  1.000000 H
   H913       1.0     0.149508      0.492712      0.175230     Biso  1.000000 H
   H914       1.0     0.145697      0.458389      0.150402     Biso  1.000000 H
   H915       1.0     0.970882      0.492946      0.177881     Biso  1.000000 H
   H916       1.0     0.966520      0.455772      0.163240     Biso  1.000000 H
   H917       1.0     0.074818      0.477903      0.233839     Biso  1.000000 H
   H918       1.0     0.075181      0.441171      0.216837     Biso  1.000000 H
   H919       1.0     0.957599      0.443690      0.268839     Biso  1.000000 H
   H920       1.0     0.916871      0.476787      0.250641     Biso  1.000000 H
   H921       1.0     0.877893      0.417064      0.206012     Biso  1.000000 H
   H922       1.0     0.806803      0.449896      0.201248     Biso  1.000000 H
   H923       1.0     0.815245      0.408818      0.271317     Biso  1.000000 H
   H924       1.0     0.743770      0.437200      0.267216     Biso  1.000000 H
   H925       1.0     0.760073      0.383479      0.213380     Biso  1.000000 H
   H926       1.0     0.667911      0.408987      0.210452     Biso  1.000000 H
   H927       1.0     0.699159      0.374680      0.284816     Biso  1.000000 H
   H928       1.0     0.599768      0.394324      0.274392     Biso  1.000000 H
   H929       1.0     0.625231      0.335106      0.267216     Biso  1.000000 H
   H930       1.0     0.660268      0.343975      0.222390     Biso  1.000000 H
   H931       1.0     0.460027      0.369344      0.247309     Biso  1.000000 H
   H932       1.0     0.507607      0.361984      0.201547     Biso  1.000000 H
   H933       1.0     0.388233      0.322590      0.230735     Biso  1.000000 H
   H934       1.0     0.482035      0.306666      0.255625     Biso  1.000000 H
   H935       1.0     0.499833      0.315022      0.168509     Biso  1.000000 H
   H936       1.0     0.575046      0.296210      0.200003     Biso  1.000000 H
   H937       1.0     0.367880      0.278571      0.179074     Biso  1.000000 H
   H938       1.0     0.448080      0.258541      0.209282     Biso  1.000000 H
   H939       1.0     0.488466      0.272916      0.130692     Biso  1.000000 H
   H940       1.0     0.559607      0.253463      0.160002     Biso  1.000000 H
   H941       1.0     0.357319      0.230276      0.144396     Biso  1.000000 H
   H942       1.0     0.444755      0.213598      0.171109     Biso  1.000000 H
   H943       1.0     0.449757      0.222394      0.087188     Biso  1.000000 H
   H944       1.0     0.559745      0.211742      0.109077     Biso  1.000000 H
   H945       1.0     0.383399      0.172841      0.104033     Biso  1.000000 H
   H946       1.0     0.486608      0.163303      0.129761     Biso  1.000000 H
   H947       1.0     0.484067      0.179909      0.049201     Biso  1.000000 H
   H948       1.0     0.583212      0.163413      0.072365     Biso  1.000000 H
   H949       1.0     0.389279      0.133185      0.054674     Biso  1.000000 H
   H950       1.0     0.476381      0.118618      0.087023     Biso  1.000000 H
   H951       1.0     0.509030      0.129142      0.000815     Biso  1.000000 H
   H952       1.0     0.602418      0.116812      0.033967     Biso  1.000000 H
   H953       1.0     0.412041      0.085887      0.019047     Biso  1.000000 H
   H954       1.0     0.503767      0.071228      0.047107     Biso  1.000000 H
   H955       1.0     0.471031      0.054204      0.969584     Biso  1.000000 H
   H956       1.0     0.544277      0.086202      0.964173     Biso  1.000000 H
   H957       1.0     0.599689      0.038479      0.016379     Biso  1.000000 H
   H958       1.0     0.677006      0.067271      0.003652     Biso  1.000000 H
   H959       1.0     0.727983      0.023432      0.972289     Biso  1.000000 H
   H960       1.0     0.618510      0.011604      0.955373     Biso  1.000000 H
   H961       1.0     0.715346      0.069852      0.934726     Biso  1.000000 H
   H962       1.0     0.623917      0.051517      0.905023     Biso  1.000000 H
   H963       1.0     0.836628      0.029422      0.923392     Biso  1.000000 H
   H964       1.0     0.754818      0.008008      0.899754     Biso  1.000000 H
   H965       1.0     0.741498      0.064676      0.857350     Biso  1.000000 H
   H966       1.0     0.788664      0.032503      0.843879     Biso  1.000000 H
   H967       1.0     0.912407      0.077354      0.885601     Biso  1.000000 H
   H968       1.0     0.951872      0.041504      0.866093     Biso  1.000000 H
   H969       1.0     0.845905      0.083470      0.810360     Biso  1.000000 H
   H970       1.0     0.928986      0.053912      0.804237     Biso  1.000000 H
   H971       1.0     0.054153      0.084241      0.829896     Biso  1.000000 H
   H972       1.0     0.015305      0.097384      0.785754     Biso  1.000000 H
   H973       1.0     0.968225      0.123414      0.863245     Biso  1.000000 H
   H974       1.0     0.904111      0.133918      0.821467     Biso  1.000000 H
   H975       1.0     0.122543      0.147205      0.830893     Biso  1.000000 H
   H976       1.0     0.041269      0.156177      0.794469     Biso  1.000000 H
   H977       1.0     0.046422      0.172574      0.874038     Biso  1.000000 H
   H978       1.0     0.939699      0.186963      0.857521     Biso  1.000000 H
   H979       1.0     0.141168      0.202132      0.827333     Biso  1.000000 H
   H980       1.0     0.038300      0.218198      0.809733     Biso  1.000000 H
   H981       1.0     0.101014      0.218592      0.892378     Biso  1.000000 H
   H982       1.0     0.993391      0.235812      0.880361     Biso  1.000000 H
   H983       1.0     0.193633      0.258006      0.849917     Biso  1.000000 H
   H984       1.0     0.082461      0.264396      0.825368     Biso  1.000000 H
   H985       1.0     0.089132      0.276494      0.910235     Biso  1.000000 H
   H986       1.0     0.001819      0.286410      0.876288     Biso  1.000000 H
   H987       1.0     0.211198      0.313657      0.876886     Biso  1.000000 H
   H988       1.0     0.118485      0.323951      0.846329     Biso  1.000000 H
   H989       1.0     0.111807      0.326523      0.930996     Biso  1.000000 H
   H990       1.0     0.032341      0.346188      0.901264     Biso  1.000000 H
   H991       1.0     0.244116      0.358296      0.907557     Biso  1.000000 H
   H992       1.0     0.167030      0.378444      0.880104     Biso  1.000000 H
   H993       1.0     0.175334      0.377156      0.967676     Biso  1.000000 H
   H994       1.0     0.067138      0.389408      0.947114     Biso  1.000000 H
   H995       1.0     0.269121      0.412828      0.930739     Biso  1.000000 H
   H996       1.0     0.168293      0.427970      0.905422     Biso  1.000000 H
   H997       1.0     0.179079      0.432566      0.993449     Biso  1.000000 H
   H998       1.0     0.084399      0.441705      0.963205     Biso  1.000000 H
   H999       1.0     0.281497      0.470392      0.958278     Biso  1.000000 H
   H1000      1.0     0.177112      0.483943      0.936691     Biso  1.000000 H
   H1001      1.0     0.204760      0.483698      0.020765     Biso  1.000000 H
   H1002      1.0     0.094873      0.496366      0.996724     Biso  1.000000 H
   H1003      1.0     0.302539      0.519759      0.981801     Biso  1.000000 H
   H1004      1.0     0.195926      0.538620      0.966850     Biso  1.000000 H
   H1005      1.0     0.239085      0.529650      0.052552     Biso  1.000000 H
   H1006      1.0     0.150089      0.549697      0.031607     Biso  1.000000 H
   H1007      1.0     0.357980      0.563393      0.018153     Biso  1.000000 H
   H1008      1.0     0.251527      0.583698      0.006266     Biso  1.000000 H
   H1009      1.0     0.292515      0.572435      0.086268     Biso  1.000000 H
   H1010      1.0     0.202517      0.593720      0.069879     Biso  1.000000 H
   H1011      1.0     0.401763      0.614752      0.046691     Biso  1.000000 H
   H1012      1.0     0.291956      0.634719      0.046837     Biso  1.000000 H
   H1013      1.0     0.416150      0.613803      0.116325     Biso  1.000000 H
   H1014      1.0     0.310386      0.633103      0.120528     Biso  1.000000 H
   H1015      1.0     0.456543      0.659742      0.069007     Biso  1.000000 H
   H1016      1.0     0.367757      0.677079      0.093200     Biso  1.000000 H
   H1017      1.0     0.465776      0.673112      0.151729     Biso  1.000000 H
   H1018      1.0     0.512085      0.696631      0.122547     Biso  1.000000 H
   H1019      1.0     0.589606      0.635516      0.110996     Biso  1.000000 H
   H1020      1.0     0.644292      0.668053      0.096182     Biso  1.000000 H
   H1021      1.0     0.627075      0.640431      0.173441     Biso  1.000000 H
   H1022      1.0     0.666053      0.680238      0.165137     Biso  1.000000 H
   H1023      1.0     0.787234      0.631879      0.175227     Biso  1.000000 H
   H1024      1.0     0.741665      0.621707      0.127642     Biso  1.000000 H
   H1025      1.0     0.872885      0.678957      0.143744     Biso  1.000000 H
   H1026      1.0     0.819505      0.670018      0.103242     Biso  1.000000 H
   H1027      1.0     0.979237      0.633914      0.142710     Biso  1.000000 H
   H1028      1.0     0.916741      0.616895      0.104976     Biso  1.000000 H
   H1029      1.0     0.079710      0.643696      0.095461     Biso  1.000000 H
   H1030      1.0     0.016742      0.677942      0.101575     Biso  1.000000 H
   H1031      1.0     0.995663      0.629109      0.038040     Biso  1.000000 H
   H1032      1.0     0.895793      0.653453      0.048073     Biso  1.000000 H
   H1033      1.0     0.104077      0.672044      0.023012     Biso  1.000000 H
   H1034      1.0     0.995729      0.695866      0.027494     Biso  1.000000 H
   H1035      1.0     0.906099      0.672109      0.977045     Biso  1.000000 H
   H1036      1.0     0.012090      0.688212      0.959901     Biso  1.000000 H
   H1037      1.0     0.989369      0.621623      0.976533     Biso  1.000000 H
   H1038      1.0     0.087099      0.637134      0.957424     Biso  1.000000 H
   H1039      1.0     0.986190      0.655659      0.899413     Biso  1.000000 H
   H1040      1.0     0.993020      0.614369      0.904283     Biso  1.000000 H
   H1041      1.0     0.822844      0.653570      0.932021     Biso  1.000000 H
   H1042      1.0     0.827040      0.619022      0.946830     Biso  1.000000 H
   H1043      1.0     0.832861      0.638571      0.862704     Biso  1.000000 H
   H1044      1.0     0.815266      0.601680      0.877114     Biso  1.000000 H
   H1045      1.0     0.688700      0.652162      0.906077     Biso  1.000000 H
   H1046      1.0     0.668470      0.612391      0.910804     Biso  1.000000 H
   H1047      1.0     0.677543      0.640539      0.832630     Biso  1.000000 H
   H1048      1.0     0.621000      0.609823      0.846072     Biso  1.000000 H
   H1049      1.0     0.561204      0.671631      0.866434     Biso  1.000000 H
   H1050      1.0     0.495028      0.638169      0.872016     Biso  1.000000 H
   H1051      1.0     0.524897      0.673369      0.805661     Biso  1.000000 H
   H1052      1.0     0.501045      0.634342      0.798313     Biso  1.000000 H
   H1053      1.0     0.371960      0.669083      0.849347     Biso  1.000000 H
   H1054      1.0     0.338578      0.635976      0.830039     Biso  1.000000 H
   H1055      1.0     0.265797      0.676150      0.792390     Biso  1.000000 H
   H1056      1.0     0.375175      0.689449      0.777154     Biso  1.000000 H
   H1057      1.0     0.278775      0.625675      0.767443     Biso  1.000000 H
   H1058      1.0     0.390636      0.632698      0.750868     Biso  1.000000 H
   H1059      1.0     0.204266      0.664482      0.727003     Biso  1.000000 H
   H1060      1.0     0.329439      0.676593      0.713447     Biso  1.000000 H
   H1061      1.0     0.348798      0.626327      0.679501     Biso  1.000000 H
   H1062      1.0     0.271843      0.653732      0.661844     Biso  1.000000 H
   H1063      1.0     0.198917      0.603050      0.713077     Biso  1.000000 H
   H1064      1.0     0.134599      0.619975      0.679017     Biso  1.000000 H
   H1065      1.0     0.304681      0.580208      0.655095     Biso  1.000000 H
   H1066      1.0     0.230281      0.599295      0.625363     Biso  1.000000 H
   H1067      1.0     0.144413      0.556456      0.681637     Biso  1.000000 H
   H1068      1.0     0.092594      0.573478      0.640200     Biso  1.000000 H
   H1069      1.0     0.215793      0.552020      0.601811     Biso  1.000000 H
   H1070      1.0     0.121512      0.526097      0.614028     Biso  1.000000 H
   H1071      1.0     0.333352      0.529241      0.649627     Biso  1.000000 H
   H1072      1.0     0.251911      0.498104      0.655208     Biso  1.000000 H
   H1073      1.0     0.304717      0.512977      0.574329     Biso  1.000000 H
   H1074      1.0     0.251976      0.484925      0.594179     Biso  1.000000 H
   H1075      1.0     0.459069      0.503189      0.615993     Biso  1.000000 H
   H1076      1.0     0.401408      0.473992      0.633166     Biso  1.000000 H
   H1077      1.0     0.458409      0.478665      0.550777     Biso  1.000000 H
   H1078      1.0     0.378514      0.451927      0.567352     Biso  1.000000 H
   H1079      1.0     0.480612      0.427970      0.608988     Biso  1.000000 H
   H1080      1.0     0.522458      0.427001      0.562511     Biso  1.000000 H
   H1081      1.0     0.665545      0.428413      0.588825     Biso  1.000000 H
   H1082      1.0     0.635487      0.458904      0.618756     Biso  1.000000 H
   H1083      1.0     0.641077      0.490958      0.560659     Biso  1.000000 H
   H1084      1.0     0.744910      0.469803      0.569232     Biso  1.000000 H
   H1085      1.0     0.588002      0.457038      0.508515     Biso  1.000000 H
   H1086      1.0     0.668339      0.431493      0.520191     Biso  1.000000 H
   H1087      1.0     0.718431      0.490677      0.485419     Biso  1.000000 H
   H1088      1.0     0.801620      0.463127      0.501168     Biso  1.000000 H
   H1089      1.0     0.643189      0.449278      0.446175     Biso  1.000000 H
   H1090      1.0     0.742855      0.426162      0.458364     Biso  1.000000 H
   H1091      1.0     0.769654      0.484559      0.418950     Biso  1.000000 H
   H1092      1.0     0.859101      0.460040      0.430170     Biso  1.000000 H
   H1093      1.0     0.787641      0.420352      0.384405     Biso  1.000000 H
   H1094      1.0     0.826191      0.451855      0.361679     Biso  1.000000 H
   H1095      1.0     0.670895      0.435588      0.340491     Biso  1.000000 H
   H1096      1.0     0.623424      0.435300      0.384149     Biso  1.000000 H
   H1097      1.0     0.668325      0.487828      0.335849     Biso  1.000000 H
   H1098      1.0     0.641773      0.491765      0.383408     Biso  1.000000 H
   H1099      1.0     0.510656      0.461735      0.323689     Biso  1.000000 H
   H1100      1.0     0.481759      0.465542      0.372074     Biso  1.000000 H
   H1101      1.0     0.533368      0.520833      0.322179     Biso  1.000000 H
   H1102      1.0     0.486688      0.517861      0.370536     Biso  1.000000 H
   H1103      1.0     0.363046      0.497214      0.302615     Biso  1.000000 H
   H1104      1.0     0.333032      0.498365      0.351256     Biso  1.000000 H
   H1105      1.0     0.389584      0.552932      0.302330     Biso  1.000000 H
   H1106      1.0     0.330434      0.555476      0.345219     Biso  1.000000 H
   H1107      1.0     0.231958      0.564342      0.286951     Biso  1.000000 H
   H1108      1.0     0.231696      0.528353      0.274848     Biso  1.000000 H
   H1109      1.0     0.141705      0.553189      0.347468     Biso  1.000000 H
   H1110      1.0     0.173403      0.513872      0.340377     Biso  1.000000 H
   H1111      1.0     0.050487      0.550812      0.287122     Biso  1.000000 H
   H1112      1.0     0.060519      0.511457      0.289913     Biso  1.000000 H
   H1113      1.0     0.984709      0.518117      0.354019     Biso  1.000000 H
   H1114      1.0     0.904953      0.525915      0.318135     Biso  1.000000 H
   H1115      1.0     0.997427      0.567225      0.370650     Biso  1.000000 H
   H1116      1.0     0.934793      0.581265      0.331150     Biso  1.000000 H
   H1117      1.0     0.857017      0.541303      0.396053     Biso  1.000000 H
   H1118      1.0     0.794347      0.548073      0.358888     Biso  1.000000 H
   H1119      1.0     0.858259      0.595755      0.418067     Biso  1.000000 H
   H1120      1.0     0.833877      0.607772      0.372786     Biso  1.000000 H
   H1121      1.0     0.669994      0.578232      0.380675     Biso  1.000000 H
   H1122      1.0     0.683336      0.610374      0.403514     Biso  1.000000 H
   H1123      1.0     0.707862      0.545856      0.426981     Biso  1.000000 H
   H1124      1.0     0.739146      0.574382      0.460956     Biso  1.000000 H
   H1125      1.0     0.544306      0.555665      0.423364     Biso  1.000000 H
   H1126      1.0     0.554845      0.590453      0.449023     Biso  1.000000 H
   H1127      1.0     0.615106      0.529855      0.477616     Biso  1.000000 H
   H1128      1.0     0.602033      0.560382      0.507461     Biso  1.000000 H
   H1129      1.0     0.417863      0.556928      0.495273     Biso  1.000000 H
   H1130      1.0     0.477056      0.527874      0.516005     Biso  1.000000 H
   H1131      1.0     0.406329      0.524881      0.437432     Biso  1.000000 H
   H1132      1.0     0.481636      0.497522      0.458279     Biso  1.000000 H
   H1133      1.0     0.289902      0.515605      0.489577     Biso  1.000000 H
   H1134      1.0     0.360963      0.489065      0.508202     Biso  1.000000 H
   H1135      1.0     0.290258      0.486299      0.425699     Biso  1.000000 H
   H1136      1.0     0.355294      0.458623      0.450020     Biso  1.000000 H
   H1137      1.0     0.151874      0.480023      0.456456     Biso  1.000000 H
   H1138      1.0     0.198459      0.460550      0.495557     Biso  1.000000 H
   H1139      1.0     0.172082      0.441502      0.411830     Biso  1.000000 H
   H1140      1.0     0.247890      0.417516      0.440423     Biso  1.000000 H
   H1141      1.0     0.034199      0.431966      0.461440     Biso  1.000000 H
   H1142      1.0     0.107053      0.404692      0.481005     Biso  1.000000 H
   H1143      1.0     0.063523      0.400775      0.398046     Biso  1.000000 H
   H1144      1.0     0.113382      0.373605      0.430398     Biso  1.000000 H
   H1145      1.0     0.909794      0.398115      0.436777     Biso  1.000000 H
   H1146      1.0     0.957374      0.365276      0.457652     Biso  1.000000 H
   H1147      1.0     0.932063      0.370509      0.370337     Biso  1.000000 H
   H1148      1.0     0.964342      0.339963      0.396196     Biso  1.000000 H
   H1149      1.0     0.764776      0.368579      0.411061     Biso  1.000000 H
   H1150      1.0     0.802303      0.335482      0.428205     Biso  1.000000 H
   H1151      1.0     0.780861      0.347251      0.342656     Biso  1.000000 H
   H1152      1.0     0.839365      0.314911      0.362306     Biso  1.000000 H
   H1153      1.0     0.623946      0.328109      0.366378     Biso  1.000000 H
   H1154      1.0     0.687923      0.301060      0.395882     Biso  1.000000 H
   H1155      1.0     0.661415      0.303540      0.307342     Biso  1.000000 H
   H1156      1.0     0.735401      0.277164      0.331834     Biso  1.000000 H
   H1157      1.0     0.515809      0.281198      0.350914     Biso  1.000000 H
   H1158      1.0     0.596357      0.254817      0.365752     Biso  1.000000 H
   H1159      1.0     0.553140      0.265948      0.286353     Biso  1.000000 H
   H1160      1.0     0.615062      0.236003      0.302900     Biso  1.000000 H
   H1161      1.0     0.404594      0.239230      0.321923     Biso  1.000000 H
   H1162      1.0     0.502236      0.212831      0.334169     Biso  1.000000 H
   H1163      1.0     0.445089      0.223139      0.249075     Biso  1.000000 H
   H1164      1.0     0.521856      0.198572      0.266703     Biso  1.000000 H
   H1165      1.0     0.304695      0.197943      0.288091     Biso  1.000000 H
   H1166      1.0     0.393234      0.175155      0.308624     Biso  1.000000 H
   H1167      1.0     0.359105      0.173354      0.227659     Biso  1.000000 H
   H1168      1.0     0.439391      0.149831      0.248961     Biso  1.000000 H
   H1169      1.0     0.296493      0.121816      0.236288     Biso  1.000000 H
   H1170      1.0     0.231072      0.143704      0.269807     Biso  1.000000 H
   H1171      1.0     0.389511      0.100580      0.276955     Biso  1.000000 H
   H1172      1.0     0.357711      0.125847      0.317423     Biso  1.000000 H
   H1173      1.0     0.229068      0.079447      0.277696     Biso  1.000000 H
   H1174      1.0     0.192471      0.102824      0.313009     Biso  1.000000 H
   H1175      1.0     0.336139      0.080041      0.351484     Biso  1.000000 H
   H1176      1.0     0.221643      0.062920      0.351114     Biso  1.000000 H
   H1177      1.0     0.381323      0.038493      0.299767     Biso  1.000000 H
   H1178      1.0     0.277926      0.022537      0.308424     Biso  1.000000 H
   H1179      1.0     0.419380      0.039480      0.376146     Biso  1.000000 H
   H1180      1.0     0.312338      0.024545      0.384861     Biso  1.000000 H
   H1181      1.0     0.475154      0.991922      0.343453     Biso  1.000000 H
   H1182      1.0     0.359555      0.980101      0.341887     Biso  1.000000 H
   H1183      1.0     0.490687      0.988398      0.411745     Biso  1.000000 H
   H1184      1.0     0.363946      0.980276      0.421427     Biso  1.000000 H
   H1185      1.0     0.484474      0.939731      0.370536     Biso  1.000000 H
   H1186      1.0     0.378492      0.931562      0.390671     Biso  1.000000 H
   H1187      1.0     0.553575      0.939482      0.444068     Biso  1.000000 H
   H1188      1.0     0.426718      0.929372      0.450476     Biso  1.000000 H
   H1189      1.0     0.551797      0.888490      0.404568     Biso  1.000000 H
   H1190      1.0     0.427952      0.886970      0.415874     Biso  1.000000 H
   H1191      1.0     0.596865      0.889131      0.475480     Biso  1.000000 H
   H1192      1.0     0.482013      0.884474      0.487555     Biso  1.000000 H
   H1193      1.0     0.596205      0.838411      0.438543     Biso  1.000000 H
   H1194      1.0     0.479901      0.831802      0.454748     Biso  1.000000 H
   H1195      1.0     0.661974      0.839785      0.504813     Biso  1.000000 H
   H1196      1.0     0.548313      0.837556      0.521017     Biso  1.000000 H
   H1197      1.0     0.643486      0.786339      0.473857     Biso  1.000000 H
   H1198      1.0     0.528606      0.783302      0.500028     Biso  1.000000 H
   H1199      1.0     0.718148      0.794803      0.537535     Biso  1.000000 H
   H1200      1.0     0.594949      0.787403      0.557925     Biso  1.000000 H
   H1201      1.0     0.719432      0.746856      0.512588     Biso  1.000000 H
   H1202      1.0     0.603993      0.738250      0.527624     Biso  1.000000 H
   H1203      1.0     0.790254      0.741448      0.577490     Biso  1.000000 H
   H1204      1.0     0.678407      0.732215      0.592897     Biso  1.000000 H
   H1205      1.0     0.870206      0.862595      0.545196     Biso  1.000000 H
   H1206      1.0     0.735176      0.712281      0.558353     Biso  1.000000 H
   H1207      1.0     0.510264      0.315721      0.046076     Biso  1.000000 H
   H1208      1.0     0.465900      0.285003      0.027312     Biso  1.000000 H
   H1209      1.0     0.635226      0.296154      0.000284     Biso  1.000000 H
   H1210      1.0     0.677834      0.285924      0.044211     Biso  1.000000 H
   H1211      1.0     0.649453      0.235605      0.048511     Biso  1.000000 H
   H1212      1.0     0.702999      0.245344      0.005506     Biso  1.000000 H
   H1213      1.0     0.493003      0.229322      0.018800     Biso  1.000000 H
   H1214      1.0     0.532772      0.244136      0.976732     Biso  1.000000 H
   H1215      1.0     0.605249      0.186475      0.011136     Biso  1.000000 H
   H1216      1.0     0.642761      0.204468      0.966053     Biso  1.000000 H
   H1217      1.0     0.550839      0.165405      0.950190     Biso  1.000000 H
   H1218      1.0     0.449924      0.173918      0.981203     Biso  1.000000 H
   H1219      1.0     0.448370      0.181539      0.909067     Biso  1.000000 H
   H1220      1.0     0.509080      0.216928      0.919291     Biso  1.000000 H
   H1221      1.0     0.314538      0.190632      0.940279     Biso  1.000000 H
   H1222      1.0     0.355316      0.223984      0.962749     Biso  1.000000 H
   H1223      1.0     0.248021      0.230026      0.906077     Biso  1.000000 H
   H1224      1.0     0.342773      0.217890      0.877028     Biso  1.000000 H
   H1225      1.0     0.438949      0.258626      0.894116     Biso  1.000000 H
   H1226      1.0     0.336400      0.270782      0.876003     Biso  1.000000 H
   H1227      1.0     0.311808      0.268091      0.960442     Biso  1.000000 H
   H1228      1.0     0.250401      0.288470      0.932021     Biso  1.000000 H
   H1229      1.0     0.465362      0.303072      0.945833     Biso  1.000000 H
   H1230      1.0     0.391841      0.320409      0.912826     Biso  1.000000 H
   H1231      1.0     0.337184      0.314451      0.996724     Biso  1.000000 H
   H1232      1.0     0.279464      0.332604      0.965796     Biso  1.000000 H
   H1233      1.0     0.487421      0.348621      0.981032     Biso  1.000000 H
   H1234      1.0     0.395114      0.369015      0.957509     Biso  1.000000 H
   H1235      1.0     0.424083      0.361498      0.040401     Biso  1.000000 H
   H1236      1.0     0.312440      0.358825      0.028744     Biso  1.000000 H
   H1237      1.0     0.458670      0.408270      0.006354     Biso  1.000000 H
   H1238      1.0     0.330485      0.413325      0.996781     Biso  1.000000 H
   H1239      1.0     0.398809      0.407683      0.079869     Biso  1.000000 H
   H1240      1.0     0.284589      0.417595      0.062118     Biso  1.000000 H
   H1241      1.0     0.467445      0.454047      0.051789     Biso  1.000000 H
   H1242      1.0     0.359693      0.464260      0.032404     Biso  1.000000 H
   H1243      1.0     0.379879      0.451969      0.120084     Biso  1.000000 H
   H1244      1.0     0.284415      0.466455      0.096375     Biso  1.000000 H
   H1245      1.0     0.476315      0.498320      0.094792     Biso  1.000000 H
   H1246      1.0     0.366813      0.512446      0.076417     Biso  1.000000 H
   H1247      1.0     0.396334      0.498505      0.159544     Biso  1.000000 H
   H1248      1.0     0.299396      0.515448      0.142898     Biso  1.000000 H
   H1249      1.0     0.494752      0.541510      0.151957     Biso  1.000000 H
   H1250      1.0     0.412317      0.557212      0.120394     Biso  1.000000 H
   H1251      1.0     0.296863      0.553121      0.187943     Biso  1.000000 H
   H1252      1.0     0.361943      0.583082      0.169378     Biso  1.000000 H
   H1253      1.0     0.371611      0.572325      0.240104     Biso  1.000000 H
   H1254      1.0     0.434543      0.539582      0.233412     Biso  1.000000 H
   H1255      1.0     0.507556      0.600302      0.205061     Biso  1.000000 H
   H1256      1.0     0.565334      0.567537      0.202284     Biso  1.000000 H
   H1257      1.0     0.492103      0.593637      0.277867     Biso  1.000000 H
   H1258      1.0     0.583618      0.568385      0.272256     Biso  1.000000 H
   H1259      1.0     0.576243      0.633890      0.259384     Biso  1.000000 H
   H1260      1.0     0.660493      0.611754      0.226349     Biso  1.000000 H
   H1261      1.0     0.674110      0.610450      0.312839     Biso  1.000000 H
   H1262      1.0     0.749286      0.595611      0.285129     Biso  1.000000 H
   H1263      1.0     0.800931      0.644798      0.312725     Biso  1.000000 H
   H1264      1.0     0.704952      0.663443      0.295723     Biso  1.000000 H
   H1265      1.0     0.863920      0.635862      0.244404     Biso  1.000000 H
   H1266      1.0     0.754803      0.657511      0.229111     Biso  1.000000 H
   H1267      1.0     0.913140      0.683584      0.280999     Biso  1.000000 H
   H1268      1.0     0.811049      0.702441      0.260666     Biso  1.000000 H
   H1269      1.0     0.956648      0.676472      0.208709     Biso  1.000000 H
   H1270      1.0     0.860153      0.700865      0.198357     Biso  1.000000 H
   H1271      1.0     0.044448      0.714928      0.249559     Biso  1.000000 H
   H1272      1.0     0.944185      0.737117      0.253005     Biso  1.000000 H
   H1273      1.0     0.974090      0.752660      0.184232     Biso  1.000000 H
   H1274      1.0     0.078694      0.754494      0.215356     Biso  1.000000 H
   H1275      1.0     0.062362      0.698954      0.164587     Biso  1.000000 H
   H1276      1.0     0.164359      0.715346      0.189680     Biso  1.000000 H
   H1277      1.0     0.075740      0.742833      0.121437     Biso  1.000000 H
   H1278      1.0     0.170275      0.754886      0.147318     Biso  1.000000 H
   H1279      1.0     0.170688      0.699124      0.102279     Biso  1.000000 H
   H1280      1.0     0.261347      0.708620      0.138339     Biso  1.000000 H
   H1281      1.0     0.287775      0.720342      0.064103     Biso  1.000000 H
   H1282      1.0     0.223617      0.753968      0.073066     Biso  1.000000 H
   H1283      1.0     0.400130      0.730455      0.118799     Biso  1.000000 H
   H1284      1.0     0.350010      0.767572      0.125575     Biso  1.000000 H
   H1285      1.0     0.443558      0.747081      0.051254     Biso  1.000000 H
   H1286      1.0     0.419031      0.782382      0.064502     Biso  1.000000 H
   H1287      1.0     0.601489      0.768155      0.070132     Biso  1.000000 H
   H1288      1.0     0.558867      0.739489      0.102914     Biso  1.000000 H
   H1289      1.0     0.523634      0.776729      0.152145     Biso  1.000000 H
   H1290      1.0     0.636286      0.783457      0.136015     Biso  1.000000 H
   H1291      1.0     0.528003      0.833918      0.134392     Biso  1.000000 H
   H1292      1.0     0.498352      0.818789      0.090859     Biso  1.000000 H
   H1293      1.0     0.711187      0.820975      0.113235     Biso  1.000000 H
   H1294      1.0     0.659854      0.814506      0.069754     Biso  1.000000 H
   H1295      1.0     0.612398      0.878423      0.101205     Biso  1.000000 H
   H1296      1.0     0.579887      0.865824      0.058604     Biso  1.000000 H
   H1297      1.0     0.779518      0.877139      0.093470     Biso  1.000000 H
   H1298      1.0     0.775192      0.857389      0.050325     Biso  1.000000 H
   H1299      1.0     0.815963      0.909229      0.035793     Biso  1.000000 H
   H1300      1.0     0.707775      0.919786      0.053119     Biso  1.000000 H
   H1301      1.0     0.746797      0.886812      0.980890     Biso  1.000000 H
   H1302      1.0     0.640510      0.880118      0.003331     Biso  1.000000 H
   H1303      1.0     0.697940      0.944694      0.985561     Biso  1.000000 H
   H1304      1.0     0.592880      0.927976      0.005472     Biso  1.000000 H
   H1305      1.0     0.675199      0.912692      0.923449     Biso  1.000000 H
   H1306      1.0     0.554983      0.909310      0.937916     Biso  1.000000 H
   H1307      1.0     0.644314      0.968138      0.924873     Biso  1.000000 H
   H1308      1.0     0.520186      0.959083      0.934128     Biso  1.000000 H
   H1309      1.0     0.653169      0.945184      0.867944     Biso  1.000000 H
   H1310      1.0     0.528548      0.930528      0.865836     Biso  1.000000 H
   H1311      1.0     0.548676      0.995819      0.874095     Biso  1.000000 H
   H1312      1.0     0.452791      0.976011      0.858717     Biso  1.000000 H
   H1313      1.0     0.638028      0.983777      0.809648     Biso  1.000000 H
   H1314      1.0     0.528925      0.963119      0.800962     Biso  1.000000 H
   H1315      1.0     0.532003      0.029094      0.805633     Biso  1.000000 H
   H1316      1.0     0.437954      0.008836      0.810417     Biso  1.000000 H
   H1317      1.0     0.451506      0.991045      0.739562     Biso  1.000000 H
   H1318      1.0     0.471830      0.028644      0.741185     Biso  1.000000 H
   H1319      1.0     0.591044      0.005980      0.702198     Biso  1.000000 H
   H1320      1.0     0.631539      0.984594      0.739306     Biso  1.000000 H
   H1321      1.0     0.636823      0.051548      0.728057     Biso  1.000000 H
   H1322      1.0     0.670909      0.038203      0.772142     Biso  1.000000 H
   H1323      1.0     0.808647      0.052410      0.724269     Biso  1.000000 H
   H1324      1.0     0.771650      0.024853      0.694367     Biso  1.000000 H
   H1325      1.0     0.844453      0.014986      0.777410     Biso  1.000000 H
   H1326      1.0     0.800554      0.985185      0.746397     Biso  1.000000 H
   H1327      1.0     0.979062      0.023591      0.736942     Biso  1.000000 H
   H1328      1.0     0.929929      0.003907      0.700091     Biso  1.000000 H
   H1329      1.0     0.006399      0.985160      0.777923     Biso  1.000000 H
   H1330      1.0     0.949810      0.958622      0.747963     Biso  1.000000 H
   H1331      1.0     0.138693      0.995801      0.732642     Biso  1.000000 H
   H1332      1.0     0.087418      0.969343      0.700433     Biso  1.000000 H
   H1333      1.0     0.190453      0.959724      0.778208     Biso  1.000000 H
   H1334      1.0     0.129257      0.930110      0.759668     Biso  1.000000 H
   H1335      1.0     0.293872      0.964484      0.722589     Biso  1.000000 H
   H1336      1.0     0.223893      0.936370      0.699122     Biso  1.000000 H
   H1337      1.0     0.346003      0.929988      0.773822     Biso  1.000000 H
   H1338      1.0     0.281998      0.900160      0.748533     Biso  1.000000 H
   H1339      1.0     0.444559      0.937896      0.705786     Biso  1.000000 H
   H1340      1.0     0.392777      0.902755      0.695734     Biso  1.000000 H
   H1341      1.0     0.534071      0.915822      0.762260     Biso  1.000000 H
   H1342      1.0     0.468099      0.883954      0.762801     Biso  1.000000 H
   H1343      1.0     0.602338      0.907111      0.700319     Biso  1.000000 H
   H1344      1.0     0.558402      0.870791      0.699322     Biso  1.000000 H
   H1345      1.0     0.642347      0.856013      0.755425     Biso  1.000000 H
   H1346      1.0     0.714199      0.866370      0.721478     Biso  1.000000 H
   H1347      1.0     0.670858      0.908712      0.786780     Biso  1.000000 H
   H1348      1.0     0.741099      0.916366      0.744489     Biso  1.000000 H
   H1349      1.0     0.794652      0.866046      0.800535     Biso  1.000000 H
   H1350      1.0     0.859478      0.876421      0.762231     Biso  1.000000 H
   H1351      1.0     0.863391      0.934279      0.794839     Biso  1.000000 H
   H1352      1.0     0.954107      0.906088      0.806857     Biso  1.000000 H
   H1353      1.0     0.771374      0.919327      0.850543     Biso  1.000000 H
   H1354      1.0     0.860639      0.894289      0.867431     Biso  1.000000 H
   H1355      1.0     0.856284      0.961680      0.855584     Biso  1.000000 H
   H1356      1.0     0.968153      0.943129      0.861024     Biso  1.000000 H
   H1357      1.0     0.808334      0.944910      0.920345     Biso  1.000000 H
   H1358      1.0     0.895103      0.920611      0.924160     Biso  1.000000 H
   H1359      1.0     0.937079      0.987814      0.929173     Biso  1.000000 H
   H1360      1.0     0.020379      0.958062      0.926012     Biso  1.000000 H
   H1361      1.0     0.861039      0.959695      0.984365     Biso  1.000000 H
   H1362      1.0     0.964741      0.932801      0.981232     Biso  1.000000 H
   H1363      1.0     0.980790      0.000658      0.996923     Biso  1.000000 H
   H1364      1.0     0.067857      0.972707      0.994844     Biso  1.000000 H
   H1365      1.0     0.921016      0.966605      0.055070     Biso  1.000000 H
   H1366      1.0     0.035172      0.950898      0.051214     Biso  1.000000 H
   H1367      1.0     0.004425      0.014435      0.071610     Biso  1.000000 H
   H1368      1.0     0.114137      0.999461      0.054913     Biso  1.000000 H
   H1369      1.0     0.087048      0.000282      0.133446     Biso  1.000000 H
   H1370      1.0     0.001672      0.972640      0.117532     Biso  1.000000 H
   H1371      1.0     0.213223      0.969168      0.108795     Biso  1.000000 H
   H1372      1.0     0.142772      0.941485      0.089193     Biso  1.000000 H
   H1373      1.0     0.129823      0.953351      0.176827     Biso  1.000000 H
   H1374      1.0     0.088123      0.925079      0.145549     Biso  1.000000 H
   H1375      1.0     0.279813      0.917322      0.129818     Biso  1.000000 H
   H1376      1.0     0.229490      0.903290      0.176261     Biso  1.000000 H
   H1377      1.0     0.326079      0.961624      0.169090     Biso  1.000000 H
   H1378      1.0     0.289176      0.944667      0.213232     Biso  1.000000 H
   H1379      1.0     0.456921      0.944015      0.205992     Biso  1.000000 H
   H1380      1.0     0.455077      0.930705      0.159142     Biso  1.000000 H
   H1381      1.0     0.374929      0.894759      0.229624     Biso  1.000000 H
   H1382      1.0     0.390861      0.884262      0.180362     Biso  1.000000 H
   H1383      1.0     0.543145      0.904813      0.240987     Biso  1.000000 H
   H1384      1.0     0.570190      0.900147      0.191691     Biso  1.000000 H
   H1385      1.0     0.483872      0.847536      0.240816     Biso  1.000000 H
   H1386      1.0     0.529818      0.846297      0.195396     Biso  1.000000 H
   H1387      1.0     0.668332      0.860132      0.264567     Biso  1.000000 H
   H1388      1.0     0.693948      0.860220      0.215897     Biso  1.000000 H
   H1389      1.0     0.608747      0.808351      0.255369     Biso  1.000000 H
   H1390      1.0     0.660152      0.805664      0.207693     Biso  1.000000 H
   H1391      1.0     0.755616      0.784424      0.258615     Biso  1.000000 H
   H1392      1.0     0.770576      0.820206      0.279405     Biso  1.000000 H
   H1393      1.0     0.840410      0.799485      0.196529     Biso  1.000000 H
   H1394      1.0     0.842435      0.836875      0.209216     Biso  1.000000 H
   H1395      1.0     0.949709      0.788685      0.249217     Biso  1.000000 H
   H1396      1.0     0.938531      0.825133      0.265308     Biso  1.000000 H
   H1397      1.0     0.050415      0.805893      0.192750     Biso  1.000000 H
   H1398      1.0     0.018121      0.842827      0.203532     Biso  1.000000 H
   H1399      1.0     0.134541      0.801448      0.251097     Biso  1.000000 H
   H1400      1.0     0.106414      0.839998      0.262147     Biso  1.000000 H
   H1401      1.0     0.207968      0.845797      0.194111     Biso  1.000000 H
   H1402      1.0     0.253109      0.849809      0.239107     Biso  1.000000 H
   H1403      1.0     0.343245      0.816062      0.188324     Biso  1.000000 H
   H1404      1.0     0.250459      0.790891      0.193997     Biso  1.000000 H
   H1405      1.0     0.362908      0.813143      0.262431     Biso  1.000000 H
   H1406      1.0     0.275443      0.783261      0.262374     Biso  1.000000 H
   H1407      1.0     0.466393      0.772160      0.261492     Biso  1.000000 H
   H1408      1.0     0.449009      0.778368      0.213220     Biso  1.000000 H
   H1409      1.0     0.294976      0.737043      0.244319     Biso  1.000000 H
   H1410      1.0     0.354989      0.737679      0.199852     Biso  1.000000 H
   H1411      1.0     0.421470      0.713012      0.273196     Biso  1.000000 H
   H1412      1.0     0.502925      0.716871      0.238139     Biso  1.000000 H
   H1413      1.0     0.377825      0.688904      0.193949     Biso  1.000000 H
   H1414      1.0     0.450417      0.666360      0.228001     Biso  1.000000 H
   H1415      1.0     0.235543      0.689622      0.240047     Biso  1.000000 H
   H1416      1.0     0.280938      0.663353      0.265251     Biso  1.000000 H
   H1417      1.0     0.239738      0.654719      0.182794     Biso  1.000000 H
   H1418      1.0     0.310008      0.629201      0.207439     Biso  1.000000 H
   H1419      1.0     0.110356      0.651359      0.227118     Biso  1.000000 H
   H1420      1.0     0.174710      0.624266      0.254514     Biso  1.000000 H
   H1421      1.0     0.125562      0.609868      0.174586     Biso  1.000000 H
   H1422      1.0     0.168445      0.585436      0.211201     Biso  1.000000 H
   H1423      1.0     0.968167      0.615626      0.201370     Biso  1.000000 H
   H1424      1.0     0.013273      0.598339      0.244661     Biso  1.000000 H
   H1425      1.0     0.019755      0.563067      0.168805     Biso  1.000000 H
   H1426      1.0     0.035273      0.551795      0.216438     Biso  1.000000 H
   H1427      1.0     0.857620      0.542348      0.181435     Biso  1.000000 H
   H1428      1.0     0.836817      0.577085      0.195789     Biso  1.000000 H
   H1429      1.0     0.899676      0.526664      0.251040     Biso  1.000000 H
   H1430      1.0     0.853454      0.559487      0.264510     Biso  1.000000 H
   H1431      1.0     0.695719      0.551995      0.233839     Biso  1.000000 H
   H1432      1.0     0.720644      0.532095      0.275446     Biso  1.000000 H
   H1433      1.0     0.717872      0.506946      0.195472     Biso  1.000000 H
   H1434      1.0     0.774357      0.487857      0.231247     Biso  1.000000 H
   H1435      1.0     0.569021      0.510175      0.241414     Biso  1.000000 H
   H1436      1.0     0.628744      0.486056      0.268412     Biso  1.000000 H
   H1437      1.0     0.546418      0.482632      0.188555     Biso  1.000000 H
   H1438      1.0     0.620709      0.454274      0.202040     Biso  1.000000 H
   H1439      1.0     0.438361      0.469734      0.247480     Biso  1.000000 H
   H1440      1.0     0.519213      0.439939      0.254059     Biso  1.000000 H
   H1441      1.0     0.404993      0.449608      0.182956     Biso  1.000000 H
   H1442      1.0     0.481077      0.417298      0.191448     Biso  1.000000 H
   H1443      1.0     0.276437      0.437052      0.225324     Biso  1.000000 H
   H1444      1.0     0.344239      0.408013      0.245942     Biso  1.000000 H
   H1445      1.0     0.317194      0.406876      0.160916     Biso  1.000000 H
   H1446      1.0     0.357189      0.380360      0.184884     Biso  1.000000 H
   H1447      1.0     0.144950      0.399455      0.200718     Biso  1.000000 H
   H1448      1.0     0.218776      0.369760      0.217008     Biso  1.000000 H
   H1449      1.0     0.104011      0.350889      0.163924     Biso  1.000000 H
   H1450      1.0     0.154001      0.379420      0.136223     Biso  1.000000 H
   H1451      1.0     0.262233      0.324619      0.164921     Biso  1.000000 H
   H1452      1.0     0.308905      0.352841      0.132677     Biso  1.000000 H
   H1453      1.0     0.136326      0.309252      0.120824     Biso  1.000000 H
   H1454      1.0     0.157630      0.337402      0.088071     Biso  1.000000 H
   H1455      1.0     0.296848      0.287449      0.110239     Biso  1.000000 H
   H1456      1.0     0.327676      0.314181      0.074356     Biso  1.000000 H
   H1457      1.0     0.130817      0.279505      0.072687     Biso  1.000000 H
   H1458      1.0     0.213158      0.292160      0.032908     Biso  1.000000 H
   H1459      1.0     0.227065      0.241429      0.091474     Biso  1.000000 H
   H1460      1.0     0.323125      0.246423      0.054777     Biso  1.000000 H
   H1461      1.0     0.120365      0.231328      0.044100     Biso  1.000000 H
   H1462      1.0     0.201138      0.239796      0.006562     Biso  1.000000 H
   H1463      1.0     0.210073      0.184714      0.058416     Biso  1.000000 H
   H1464      1.0     0.298946      0.194612      0.026888     Biso  1.000000 H
   H1465      1.0     0.078207      0.174386      0.006839     Biso  1.000000 H
   H1466      1.0     0.144964      0.195175      0.976817     Biso  1.000000 H
   H1467      1.0     0.192188      0.133410      0.003532     Biso  1.000000 H
   H1468      1.0     0.288509      0.154616      0.986927     Biso  1.000000 H
   H1469      1.0     0.102669      0.134885      0.944437     Biso  1.000000 H
   H1470      1.0     0.176996      0.163728      0.926524     Biso  1.000000 H
   H1471      1.0     0.197755      0.105050      0.904624     Biso  1.000000 H
   H1472      1.0     0.240392      0.098403      0.951073     Biso  1.000000 H
   H1473      1.0     0.316294      0.145422      0.897106     Biso  1.000000 H
   H1474      1.0     0.384031      0.133929      0.938713     Biso  1.000000 H
   H1475      1.0     0.332183      0.100717      0.864242     Biso  1.000000 H
   H1476      1.0     0.376794      0.081068      0.901150     Biso  1.000000 H
   H1477      1.0     0.486695      0.133423      0.867517     Biso  1.000000 H
   H1478      1.0     0.535647      0.104787      0.898302     Biso  1.000000 H
   H1479      1.0     0.445576      0.097088      0.816882     Biso  1.000000 H
   H1480      1.0     0.497852      0.067732      0.843851     Biso  1.000000 H
   H1481      1.0     0.659695      0.099561      0.834424     Biso  1.000000 H
   H1482      1.0     0.612159      0.082651      0.793330     Biso  1.000000 H
   H1483      1.0     0.527786      0.146031      0.808281     Biso  1.000000 H
   H1484      1.0     0.551158      0.124878      0.767898     Biso  1.000000 H
   H1485      1.0     0.724709      0.129587      0.777809     Biso  1.000000 H
   H1486      1.0     0.660979      0.158610      0.759212     Biso  1.000000 H
   H1487      1.0     0.791176      0.178166      0.807000     Biso  1.000000 H
   H1488      1.0     0.739996      0.150191      0.838184     Biso  1.000000 H
   H1489      1.0     0.616528      0.202719      0.813094     Biso  1.000000 H
   H1490      1.0     0.592938      0.177350      0.848094     Biso  1.000000 H
   H1491      1.0     0.789666      0.207279      0.856182     Biso  1.000000 H
   H1492      1.0     0.706686      0.200731      0.892549     Biso  1.000000 H
   H1493      1.0     0.694928      0.251781      0.834510     Biso  1.000000 H
   H1494      1.0     0.594165      0.243403      0.867260     Biso  1.000000 H
   H1495      1.0     0.797316      0.261840      0.883151     Biso  1.000000 H
   H1496      1.0     0.727104      0.249636      0.917639     Biso  1.000000 H
   H1497      1.0     0.678146      0.303219      0.862618     Biso  1.000000 H
   H1498      1.0     0.604370      0.286858      0.897533     Biso  1.000000 H
   H1499      1.0     0.793179      0.320693      0.906304     Biso  1.000000 H
   H1500      1.0     0.727163      0.306722      0.947171     Biso  1.000000 H
   H1501      1.0     0.662489      0.354049      0.892635     Biso  1.000000 H
   H1502      1.0     0.604269      0.343595      0.935039     Biso  1.000000 H
   H1503      1.0     0.802368      0.368399      0.927065     Biso  1.000000 H
   H1504      1.0     0.763898      0.356304      0.969983     Biso  1.000000 H
   H1505      1.0     0.686471      0.412875      0.925641     Biso  1.000000 H
   H1506      1.0     0.634580      0.394841      0.965882     Biso  1.000000 H
   H1507      1.0     0.833594      0.420331      0.972176     Biso  1.000000 H
   H1508      1.0     0.754012      0.407409      0.007004     Biso  1.000000 H
   H1509      1.0     0.763070      0.463156      0.004556     Biso  1.000000 H
   H1510      1.0     0.740830      0.461313      0.955544     Biso  1.000000 H
   H1511      1.0     0.591000      0.439892      0.011247     Biso  1.000000 H
   H1512      1.0     0.577964      0.444475      0.963632     Biso  1.000000 H
   H1513      1.0     0.508289      0.486382      0.999800     Biso  1.000000 H
   H1514      1.0     0.620477      0.498743      0.011908     Biso  1.000000 H
   H1515      1.0     0.554947      0.489452      0.929173     Biso  1.000000 H
   H1516      1.0     0.665073      0.505023      0.945947     Biso  1.000000 H
   H1517      1.0     0.539298      0.542137      0.920487     Biso  1.000000 H
   H1518      1.0     0.472955      0.532279      0.960727     Biso  1.000000 H
   H1519      1.0     0.667744      0.562826      0.972432     Biso  1.000000 H
   H1520      1.0     0.583262      0.552663      0.004862     Biso  1.000000 H
   H1521      1.0     0.527357      0.595121      0.939881     Biso  1.000000 H
   H1522      1.0     0.468759      0.584753      0.984991     Biso  1.000000 H
   H1523      1.0     0.668594      0.614828      0.968644     Biso  1.000000 H
   H1524      1.0     0.623794      0.608752      0.012719     Biso  1.000000 H
   H1525      1.0     0.535559      0.654040      0.958449     Biso  1.000000 H
   H1526      1.0     0.472984      0.644505      0.997835     Biso  1.000000 H
   H1527      1.0     0.610388      0.671482      0.035682     Biso  1.000000 H
   H1528      1.0     0.559375      0.693831      0.006782     Biso  1.000000 H
   H1529      1.0     0.761706      0.671030      0.996646     Biso  1.000000 H
   H1530      1.0     0.687197      0.683987      0.955487     Biso  1.000000 H
   H1531      1.0     0.664101      0.732071      0.974254     Biso  1.000000 H
   H1532      1.0     0.773770      0.719456      0.965597     Biso  1.000000 H
   H1533      1.0     0.692677      0.732069      0.044322     Biso  1.000000 H
   H1534      1.0     0.797483      0.712614      0.042892     Biso  1.000000 H
   H1535      1.0     0.776295      0.775492      0.009063     Biso  1.000000 H
   H1536      1.0     0.878786      0.752824      0.009741     Biso  1.000000 H
   H1537      1.0     0.785267      0.764748      0.083620     Biso  1.000000 H
   H1538      1.0     0.891612      0.747926      0.074176     Biso  1.000000 H
   H1539      1.0     0.848685      0.812432      0.051445     Biso  1.000000 H
   H1540      1.0     0.962092      0.795536      0.050539     Biso  1.000000 H
   H1541      1.0     0.856016      0.807728      0.124566     Biso  1.000000 H
   H1542      1.0     0.964516      0.786171      0.122391     Biso  1.000000 H
   H1543      1.0     0.979070      0.846150      0.140287     Biso  1.000000 H
   H1544      1.0     0.962462      0.851727      0.091884     Biso  1.000000 H
   H1545      1.0     0.119741      0.811852      0.127340     Biso  1.000000 H
   H1546      1.0     0.097784      0.816170      0.079103     Biso  1.000000 H
   H1547      1.0     0.168199      0.861630      0.133674     Biso  1.000000 H
   H1548      1.0     0.145327      0.871171      0.086937     Biso  1.000000 H
   H1549      1.0     0.287572      0.820874      0.104962     Biso  1.000000 H
   H1550      1.0     0.250343      0.832173      0.061751     Biso  1.000000 H
   H1551      1.0     0.415250      0.853506      0.078724     Biso  1.000000 H
   H1552      1.0     0.361696      0.872646      0.115604     Biso  1.000000 H
   H1553      1.0     0.275755      0.903920      0.064536     Biso  1.000000 H
   H1554      1.0     0.395114      0.904963      0.066627     Biso  1.000000 H
   H1555      1.0     0.304035      0.860760      0.010552     Biso  1.000000 H
   H1556      1.0     0.422247      0.869601      0.016211     Biso  1.000000 H
   H1557      1.0     0.286462      0.919914      0.991911     Biso  1.000000 H
   H1558      1.0     0.410546      0.918990      0.990317     Biso  1.000000 H
   H1559      1.0     0.293945      0.873165      0.947940     Biso  1.000000 H
   H1560      1.0     0.417340      0.883752      0.942444     Biso  1.000000 H
   H1561      1.0     0.223705      0.923998      0.926809     Biso  1.000000 H
   H1562      1.0     0.347782      0.932318      0.919946     Biso  1.000000 H
   H1563      1.0     0.355991      0.888958      0.873269     Biso  1.000000 H
   H1564      1.0     0.271799      0.919674      0.862618     Biso  1.000000 H
   H1565      1.0     0.213905      0.857891      0.894372     Biso  1.000000 H
   H1566      1.0     0.132995      0.888591      0.894230     Biso  1.000000 H
   H1567      1.0     0.235093      0.859462      0.828045     Biso  1.000000 H
   H1568      1.0     0.162116      0.888737      0.822549     Biso  1.000000 H
   H1569      1.0     0.083034      0.832497      0.856211     Biso  1.000000 H
   H1570      1.0     0.019247      0.862111      0.835364     Biso  1.000000 H
   H1571      1.0     0.136798      0.811135      0.796377     Biso  1.000000 H
   H1572      1.0     0.095759      0.844059      0.773281     Biso  1.000000 H
   H1573      1.0     0.991975      0.793517      0.810930     Biso  1.000000 H
   H1574      1.0     0.933268      0.828699      0.794327     Biso  1.000000 H
   H1575      1.0     0.032922      0.778860      0.749729     Biso  1.000000 H
   H1576      1.0     0.000932      0.813912      0.726775     Biso  1.000000 H
   H1577      1.0     0.844489      0.775845      0.769322     Biso  1.000000 H
   H1578      1.0     0.833290      0.808225      0.744802     Biso  1.000000 H
   H1579      1.0     0.900903      0.750681      0.710429     Biso  1.000000 H
   H1580      1.0     0.897150      0.784619      0.688272     Biso  1.000000 H
   H1581      1.0     0.754317      0.748502      0.668337     Biso  1.000000 H
   H1582      1.0     0.714765      0.753161      0.715697     Biso  1.000000 H
   H1583      1.0     0.712058      0.809945      0.704818     Biso  1.000000 H
   H1584      1.0     0.620811      0.787884      0.687048     Biso  1.000000 H
   H1585      1.0     0.766584      0.805565      0.630745     Biso  1.000000 H
   H1586      1.0     0.673936      0.779596      0.626758     Biso  1.000000 H
   H1587      1.0     0.591385      0.834739      0.659537     Biso  1.000000 H
   H1588      1.0     0.551129      0.818800      0.620749     Biso  1.000000 H
   H1589      1.0     0.720797      0.859426      0.625050     Biso  1.000000 H
   H1590      1.0     0.684453      0.840300      0.584781     Biso  1.000000 H
   H1591      1.0     0.579706      0.889445      0.630688     Biso  1.000000 H
   H1592      1.0     0.518074      0.866170      0.594634     Biso  1.000000 H
   H1593      1.0     0.683060      0.913468      0.586034     Biso  1.000000 H
   H1594      1.0     0.647217      0.887988      0.549439     Biso  1.000000 H
   H1595      1.0     0.527045      0.931747      0.590847     Biso  1.000000 H
   H1596      1.0     0.470705      0.910486      0.553967     Biso  1.000000 H
   H1597      1.0     0.639850      0.955224      0.543458     Biso  1.000000 H
   H1598      1.0     0.583444      0.933298      0.507376     Biso  1.000000 H
   H1599      1.0     0.481171      0.982345      0.553768     Biso  1.000000 H
   H1600      1.0     0.438019      0.964799      0.512588     Biso  1.000000 H
   H1601      1.0     0.620724      0.005344      0.517116     Biso  1.000000 H
   H1602      1.0     0.570981      0.988113      0.475736     Biso  1.000000 H
   H1603      1.0     0.467678      0.035248      0.531070     Biso  1.000000 H
   H1604      1.0     0.411649      0.022651      0.488124     Biso  1.000000 H
   H1605      1.0     0.592960      0.062175      0.498035     Biso  1.000000 H
   H1606      1.0     0.558097      0.048472      0.452725     Biso  1.000000 H
   H1607      1.0     0.521079      0.281686      0.070346     Biso  1.000000 H
   H1608      1.0     0.479234      0.071831      0.479723     Biso  1.000000 H

# Number_of_total_atoms: 2408
# Number_of_atom_type: 2
# Name_of_each_atom:  C  H
# Number_of_each_atom: 800 1608
# Created_by: Lihua Chen (lihua.chen@mse.gatech.edu)
# Tool: VASP
# K-points: 1 1 1
# Pseudopotential: PBE-HSE06
# Material_class: MC_Pol
# Geometry_class: GC_PD
# Bandgap_(eV): 6.30

# Note: average bandgap of 5 configurations
# Note:  HSE06 Band gap is derived from PBE band gap, based on Eg (HSE06)=1.140*Eg (PBE) + 0.799, R2=0.97

