======================================================================

# Note: Amorphous region of isotactic polypropylene
# Common_name: Amorphous region
#----------------------------------------------------------------------

data_VESTA_phase_1


_chemical_name_common                  'C  H                                  '
_cell_length_a                         42.73789
_cell_length_b                         26.19997
_cell_length_c                         14.63477
_cell_angle_alpha                      90
_cell_angle_beta                       90
_cell_angle_gamma                      90
_space_group_name_H-M_alt              'P 1'
_space_group_IT_number                 1

loop_
_space_group_symop_operation_xyz
   'x, y, z'

loop_
   _atom_site_label
   _atom_site_occupancy
   _atom_site_fract_x
   _atom_site_fract_y
   _atom_site_fract_z
   _atom_site_adp_type
   _atom_site_B_iso_or_equiv
   _atom_site_type_symbol
   C1         1.0     0.981644      0.213067      0.905575     Biso  1.000000 C
   C2         1.0     0.630904      0.785514      0.699088     Biso  1.000000 C
   C3         1.0     0.601022      0.784506      0.640180     Biso  1.000000 C
   C4         1.0     0.649702      0.734834      0.690061     Biso  1.000000 C
   C5         1.0     0.648029      0.799693      0.867057     Biso  1.000000 C
   C6         1.0     0.622120      0.796269      0.797736     Biso  1.000000 C
   C7         1.0     0.636089      0.805380      0.965747     Biso  1.000000 C
   C8         1.0     0.610336      0.852922      0.527961     Biso  1.000000 C
   C9         1.0     0.699929      0.852697      0.891267     Biso  1.000000 C
   C10        1.0     0.714647      0.907235      0.893460     Biso  1.000000 C
   C11        1.0     0.741885      0.777693      0.925350     Biso  1.000000 C
   C12        1.0     0.724612      0.814815      0.859370     Biso  1.000000 C
   C13        1.0     0.763877      0.805014      0.993837     Biso  1.000000 C
   C14        1.0     0.741033      0.702208      0.805136     Biso  1.000000 C
   C15        1.0     0.761156      0.740079      0.867693     Biso  1.000000 C
   C16        1.0     0.666888      0.848659      0.847932     Biso  1.000000 C
   C17        1.0     0.555589      0.835640      0.577705     Biso  1.000000 C
   C18        1.0     0.590268      0.837712      0.605290     Biso  1.000000 C
   C19        1.0     0.536968      0.886369      0.720311     Biso  1.000000 C
   C20        1.0     0.430714      0.886014      0.267848     Biso  1.000000 C
   C21        1.0     0.374448      0.869708      0.402390     Biso  1.000000 C
   C22        1.0     0.381093      0.916434      0.345034     Biso  1.000000 C
   C23        1.0     0.340012      0.850941      0.390829     Biso  1.000000 C
   C24        1.0     0.378973      0.834926      0.570674     Biso  1.000000 C
   C25        1.0     0.384371      0.879976      0.502658     Biso  1.000000 C
   C26        1.0     0.384677      0.849270      0.671448     Biso  1.000000 C
   C27        1.0     0.433870      0.788972      0.530796     Biso  1.000000 C
   C28        1.0     0.397277      0.785422      0.547736     Biso  1.000000 C
   C29        1.0     0.443880      0.767075      0.441564     Biso  1.000000 C
   C30        1.0     0.486025      0.771380      0.620460     Biso  1.000000 C
   C31        1.0     0.449861      0.766571      0.614071     Biso  1.000000 C
   C32        1.0     0.497203      0.733159      0.691865     Biso  1.000000 C
   C33        1.0     0.532401      0.837537      0.661355     Biso  1.000000 C
   C34        1.0     0.497123      0.825174      0.644683     Biso  1.000000 C
   C35        1.0     0.714045      0.671044      0.850576     Biso  1.000000 C
   C36        1.0     0.750633      0.622437      0.694967     Biso  1.000000 C
   C37        1.0     0.764542      0.663189      0.762580     Biso  1.000000 C
   C38        1.0     0.780087      0.589739      0.661998     Biso  1.000000 C
   C39        1.0     0.814144      0.386254      0.456487     Biso  1.000000 C
   C40        1.0     0.781896      0.305444      0.482227     Biso  1.000000 C
   C41        1.0     0.846668      0.250918      0.453242     Biso  1.000000 C
   C42        1.0     0.840067      0.306719      0.479248     Biso  1.000000 C
   C43        1.0     0.873520      0.230135      0.518558     Biso  1.000000 C
   C44        1.0     0.857061      0.193608      0.317510     Biso  1.000000 C
   C45        1.0     0.859794      0.248196      0.354258     Biso  1.000000 C
   C46        1.0     0.890203      0.176379      0.288401     Biso  1.000000 C
   C47        1.0     0.797667      0.193318      0.251243     Biso  1.000000 C
   C48        1.0     0.834049      0.184402      0.237263     Biso  1.000000 C
   C49        1.0     0.785600      0.155784      0.318979     Biso  1.000000 C
   C50        1.0     0.749775      0.222486      0.160398     Biso  1.000000 C
   C51        1.0     0.780855      0.193540      0.161259     Biso  1.000000 C
   C52        1.0     0.728702      0.206280      0.083683     Biso  1.000000 C
   C53        1.0     0.728712      0.308212      0.239258     Biso  1.000000 C
   C54        1.0     0.811799      0.329254      0.439876     Biso  1.000000 C
   C55        1.0     0.419422      0.977747      0.271715     Biso  1.000000 C
   C56        1.0     0.795481      0.476613      0.451308     Biso  1.000000 C
   C57        1.0     0.789108      0.420761      0.415503     Biso  1.000000 C
   C58        1.0     0.721245      0.613155      0.543814     Biso  1.000000 C
   C59        1.0     0.736852      0.648910      0.613852     Biso  1.000000 C
   C60        1.0     0.732263      0.626582      0.444659     Biso  1.000000 C
   C61        1.0     0.670120      0.563968      0.502118     Biso  1.000000 C
   C62        1.0     0.686674      0.604643      0.560397     Biso  1.000000 C
   C63        1.0     0.635001      0.562254      0.534507     Biso  1.000000 C
   C64        1.0     0.673896      0.468414      0.441960     Biso  1.000000 C
   C65        1.0     0.686339      0.511021      0.509184     Biso  1.000000 C
   C66        1.0     0.681961      0.413223      0.466949     Biso  1.000000 C
   C67        1.0     0.715206      0.493704      0.314449     Biso  1.000000 C
   C68        1.0     0.681840      0.482151      0.339861     Biso  1.000000 C
   C69        1.0     0.717600      0.535777      0.242606     Biso  1.000000 C
   C70        1.0     0.765566      0.449044      0.257106     Biso  1.000000 C
   C71        1.0     0.731962      0.444632      0.287499     Biso  1.000000 C
   C72        1.0     0.770859      0.440445      0.152499     Biso  1.000000 C
   C73        1.0     0.788909      0.416987      0.313458     Biso  1.000000 C
   C74        1.0     0.751923      0.282235      0.164839     Biso  1.000000 C
   C75        1.0     0.416422      0.927422      0.325491     Biso  1.000000 C
   C76        1.0     0.414616      0.073334      0.260502     Biso  1.000000 C
   C77        1.0     0.267659      0.533471      0.432797     Biso  1.000000 C
   C78        1.0     0.255263      0.552094      0.340257     Biso  1.000000 C
   C79        1.0     0.302589      0.544907      0.446887     Biso  1.000000 C
   C80        1.0     0.235515      0.448880      0.482309     Biso  1.000000 C
   C81        1.0     0.264423      0.473345      0.441065     Biso  1.000000 C
   C82        1.0     0.226162      0.466594      0.572656     Biso  1.000000 C
   C83        1.0     0.267577      0.650304      0.334784     Biso  1.000000 C
   C84        1.0     0.249168      0.360261      0.406743     Biso  1.000000 C
   C85        1.0     0.225748      0.368780      0.330117     Biso  1.000000 C
   C86        1.0     0.270959      0.275055      0.356527     Biso  1.000000 C
   C87        1.0     0.250918      0.304307      0.428889     Biso  1.000000 C
   C88        1.0     0.249881      0.257173      0.275337     Biso  1.000000 C
   C89        1.0     0.312299      0.204154      0.336383     Biso  1.000000 C
   C90        1.0     0.293575      0.235880      0.402773     Biso  1.000000 C
   C91        1.0     0.239672      0.390582      0.489668     Biso  1.000000 C
   C92        1.0     0.215493      0.613315      0.264773     Biso  1.000000 C
   C93        1.0     0.241980      0.606769      0.337681     Biso  1.000000 C
   C94        1.0     0.169442      0.659594      0.337702     Biso  1.000000 C
   C95        1.0     0.117205      0.567243      0.729344     Biso  1.000000 C
   C96        1.0     0.183877      0.589891      0.829920     Biso  1.000000 C
   C97        1.0     0.173787      0.596288      0.729884     Biso  1.000000 C
   C98        1.0     0.197408      0.639239      0.867016     Biso  1.000000 C
   C99        1.0     0.206196      0.515300      0.934718     Biso  1.000000 C
   C100       1.0     0.206484      0.545269      0.839670     Biso  1.000000 C
   C101       1.0     0.234880      0.482712      0.939802     Biso  1.000000 C
   C102       1.0     0.167970      0.467746      0.052511     Biso  1.000000 C
   C103       1.0     0.176216      0.483177      0.950571     Biso  1.000000 C
   C104       1.0     0.143238      0.423334      0.052941     Biso  1.000000 C
   C105       1.0     0.168167      0.527506      0.199599     Biso  1.000000 C
   C106       1.0     0.152649      0.514307      0.101969     Biso  1.000000 C
   C107       1.0     0.157628      0.486136      0.274633     Biso  1.000000 C
   C108       1.0     0.180568      0.607376      0.302026     Biso  1.000000 C
   C109       1.0     0.159444      0.585563      0.224307     Biso  1.000000 C
   C110       1.0     0.299849      0.151082      0.324869     Biso  1.000000 C
   C111       1.0     0.369457      0.245994      0.327179     Biso  1.000000 C
   C112       1.0     0.346940      0.206078      0.364412     Biso  1.000000 C
   C113       1.0     0.371984      0.240566      0.219490     Biso  1.000000 C
   C114       1.0     0.606731      0.299792      0.210792     Biso  1.000000 C
   C115       1.0     0.620190      0.228979      0.094917     Biso  1.000000 C
   C116       1.0     0.539760      0.211395      0.184047     Biso  1.000000 C
   C117       1.0     0.561862      0.251464      0.140548     Biso  1.000000 C
   C118       1.0     0.549690      0.157307      0.162441     Biso  1.000000 C
   C119       1.0     0.494430      0.207150      0.065610     Biso  1.000000 C
   C120       1.0     0.504194      0.218891      0.163336     Biso  1.000000 C
   C121       1.0     0.494786      0.255521      0.004094     Biso  1.000000 C
   C122       1.0     0.456028      0.131841      0.101777     Biso  1.000000 C
   C123       1.0     0.462662      0.186318      0.061141     Biso  1.000000 C
   C124       1.0     0.476876      0.093372      0.047783     Biso  1.000000 C
   C125       1.0     0.407229      0.075242      0.154562     Biso  1.000000 C
   C126       1.0     0.421588      0.121437      0.102126     Biso  1.000000 C
   C127       1.0     0.372405      0.070215      0.131405     Biso  1.000000 C
   C128       1.0     0.403719      0.024162      0.310452     Biso  1.000000 C
   C129       1.0     0.598455      0.244761      0.175403     Biso  1.000000 C
   C130       1.0     0.412594      0.029799      0.411881     Biso  1.000000 C
   C131       1.0     0.618067      0.284902      0.380470     Biso  1.000000 C
   C132       1.0     0.594912      0.309284      0.311900     Biso  1.000000 C
   C133       1.0     0.421560      0.287231      0.378372     Biso  1.000000 C
   C134       1.0     0.400780      0.239231      0.377784     Biso  1.000000 C
   C135       1.0     0.447413      0.282620      0.302860     Biso  1.000000 C
   C136       1.0     0.456726      0.343105      0.490755     Biso  1.000000 C
   C137       1.0     0.437452      0.296032      0.473276     Biso  1.000000 C
   C138       1.0     0.464239      0.340395      0.594235     Biso  1.000000 C
   C139       1.0     0.459826      0.442460      0.485357     Biso  1.000000 C
   C140       1.0     0.440410      0.393048      0.470966     Biso  1.000000 C
   C141       1.0     0.440192      0.489658      0.483225     Biso  1.000000 C
   C142       1.0     0.519997      0.437143      0.454676     Biso  1.000000 C
   C143       1.0     0.487200      0.445364      0.414942     Biso  1.000000 C
   C144       1.0     0.529177      0.485342      0.514493     Biso  1.000000 C
   C145       1.0     0.565414      0.378864      0.399267     Biso  1.000000 C
   C146       1.0     0.546309      0.425578      0.381618     Biso  1.000000 C
   C147       1.0     0.581271      0.381277      0.497356     Biso  1.000000 C
   C148       1.0     0.589327      0.365109      0.326543     Biso  1.000000 C
   C149       1.0     0.341947      0.422273      0.568262     Biso  1.000000 C
   C150       1.0     0.322880      0.372364      0.563698     Biso  1.000000 C
   C151       1.0     0.354365      0.437849      0.476761     Biso  1.000000 C
   C152       1.0     0.825867      0.988365      0.397498     Biso  1.000000 C
   C153       1.0     0.782577      0.920854      0.275739     Biso  1.000000 C
   C154       1.0     0.771870      0.952888      0.358160     Biso  1.000000 C
   C155       1.0     0.755903      0.917758      0.205229     Biso  1.000000 C
   C156       1.0     0.815735      0.838285      0.223159     Biso  1.000000 C
   C157       1.0     0.796305      0.866079      0.299812     Biso  1.000000 C
   C158       1.0     0.780822      0.993812      0.512833     Biso  1.000000 C
   C159       1.0     0.815419      0.781308      0.233935     Biso  1.000000 C
   C160       1.0     0.847910      0.863262      0.218650     Biso  1.000000 C
   C161       1.0     0.901582      0.863758      0.135396     Biso  1.000000 C
   C162       1.0     0.838212      0.912640      0.023771     Biso  1.000000 C
   C163       1.0     0.853640      0.861613      0.036440     Biso  1.000000 C
   C164       1.0     0.823131      0.914789      0.927735     Biso  1.000000 C
   C165       1.0     0.837458      0.015559      0.036269     Biso  1.000000 C
   C166       1.0     0.866835      0.844979      0.133797     Biso  1.000000 C
   C167       1.0     0.796918      0.962941      0.434888     Biso  1.000000 C
   C168       1.0     0.780099      0.932334      0.657447     Biso  1.000000 C
   C169       1.0     0.732876      0.995060      0.616742     Biso  1.000000 C
   C170       1.0     0.634437      0.957766      0.269002     Biso  1.000000 C
   C171       1.0     0.657994      0.941628      0.113414     Biso  1.000000 C
   C172       1.0     0.665035      0.072853      0.248216     Biso  1.000000 C
   C173       1.0     0.674797      0.021734      0.197249     Biso  1.000000 C
   C174       1.0     0.647854      0.109822      0.185236     Biso  1.000000 C
   C175       1.0     0.683187      0.133318      0.376028     Biso  1.000000 C
   C176       1.0     0.693661      0.096173      0.296410     Biso  1.000000 C
   C177       1.0     0.694674      0.187189      0.357319     Biso  1.000000 C
   C178       1.0     0.669263      0.081856      0.515962     Biso  1.000000 C
   C179       1.0     0.692844      0.118410      0.470960     Biso  1.000000 C
   C180       1.0     0.642994      0.112566      0.554425     Biso  1.000000 C
   C181       1.0     0.704791      0.003090      0.548200     Biso  1.000000 C
   C182       1.0     0.684931      0.047876      0.587832     Biso  1.000000 C
   C183       1.0     0.684629      0.956018      0.525754     Biso  1.000000 C
   C184       1.0     0.760702      0.962800      0.580418     Biso  1.000000 C
   C185       1.0     0.856287      0.963525      0.038770     Biso  1.000000 C
   C186       1.0     0.855234      0.058437      0.088692     Biso  1.000000 C
   C187       1.0     0.779276      0.054330      0.034520     Biso  1.000000 C
   C188       1.0     0.803238      0.012005      0.061770     Biso  1.000000 C
   C189       1.0     0.630068      0.364387      0.860149     Biso  1.000000 C
   C190       1.0     0.642558      0.335754      0.772727     Biso  1.000000 C
   C191       1.0     0.637100      0.330132      0.947489     Biso  1.000000 C
   C192       1.0     0.576259      0.403090      0.793971     Biso  1.000000 C
   C193       1.0     0.594341      0.373716      0.871417     Biso  1.000000 C
   C194       1.0     0.592474      0.448231      0.753198     Biso  1.000000 C
   C195       1.0     0.524677      0.383799      0.883593     Biso  1.000000 C
   C196       1.0     0.546134      0.423704      0.833316     Biso  1.000000 C
   C197       1.0     0.511052      0.345819      0.809899     Biso  1.000000 C
   C198       1.0     0.507030      0.427761      0.024742     Biso  1.000000 C
   C199       1.0     0.496201      0.405036      0.932019     Biso  1.000000 C
   C200       1.0     0.518203      0.386288      0.088200     Biso  1.000000 C
   C201       1.0     0.470465      0.507216      0.032545     Biso  1.000000 C
   C202       1.0     0.480782      0.458132      0.076666     Biso  1.000000 C
   C203       1.0     0.446795      0.535338      0.093899     Biso  1.000000 C
   C204       1.0     0.686896      0.288937      0.682388     Biso  1.000000 C
   C205       1.0     0.646489      0.982911      0.181034     Biso  1.000000 C
   C206       1.0     0.696005      0.380376      0.735364     Biso  1.000000 C
   C207       1.0     0.744410      0.426502      0.679442     Biso  1.000000 C
   C208       1.0     0.748687      0.048021      0.084879     Biso  1.000000 C
   C209       1.0     0.755011      0.096555      0.889306     Biso  1.000000 C
   C210       1.0     0.775260      0.052463      0.931090     Biso  1.000000 C
   C211       1.0     0.721495      0.077837      0.872189     Biso  1.000000 C
   C212       1.0     0.771329      0.181471      0.783011     Biso  1.000000 C
   C213       1.0     0.769710      0.120070      0.800271     Biso  1.000000 C
   C214       1.0     0.780340      0.193254      0.679859     Biso  1.000000 C
   C215       1.0     0.803633      0.264803      0.829879     Biso  1.000000 C
   C216       1.0     0.797669      0.205994      0.844891     Biso  1.000000 C
   C217       1.0     0.834964      0.277971      0.870173     Biso  1.000000 C
   C218       1.0     0.778698      0.357284      0.840969     Biso  1.000000 C
   C219       1.0     0.776910      0.299441      0.862008     Biso  1.000000 C
   C220       1.0     0.795493      0.388403      0.914479     Biso  1.000000 C
   C221       1.0     0.731089      0.377998      0.731162     Biso  1.000000 C
   C222       1.0     0.744452      0.376029      0.830692     Biso  1.000000 C
   C223       1.0     0.679591      0.329788      0.759034     Biso  1.000000 C
   C224       1.0     0.603441      0.872311      0.270663     Biso  1.000000 C
   C225       1.0     0.576863      0.959686      0.299826     Biso  1.000000 C
   C226       1.0     0.602737      0.931170      0.249590     Biso  1.000000 C
   C227       1.0     0.327227      0.547433      0.090414     Biso  1.000000 C
   C228       1.0     0.370343      0.557094      0.969587     Biso  1.000000 C
   C229       1.0     0.308726      0.661937      0.015763     Biso  1.000000 C
   C230       1.0     0.341308      0.633327      0.006203     Biso  1.000000 C
   C231       1.0     0.288844      0.652544      0.932320     Biso  1.000000 C
   C232       1.0     0.326270      0.736502      0.121538     Biso  1.000000 C
   C233       1.0     0.316819      0.720052      0.024919     Biso  1.000000 C
   C234       1.0     0.298007      0.754075      0.180658     Biso  1.000000 C
   C235       1.0     0.382003      0.760422      0.102973     Biso  1.000000 C
   C236       1.0     0.347701      0.783052      0.119967     Biso  1.000000 C
   C237       1.0     0.398471      0.735121      0.188331     Biso  1.000000 C
   C238       1.0     0.398501      0.813502      0.956461     Biso  1.000000 C
   C239       1.0     0.404264      0.801785      0.057178     Biso  1.000000 C
   C240       1.0     0.428180      0.795166      0.899097     Biso  1.000000 C
   C241       1.0     0.407444      0.913010      0.914656     Biso  1.000000 C
   C242       1.0     0.338470      0.577387      0.005158     Biso  1.000000 C
   C243       1.0     0.384729      0.867296      0.935490     Biso  1.000000 C
   C244       1.0     0.348138      0.580544      0.235623     Biso  1.000000 C
   C245       1.0     0.351580      0.534948      0.165365     Biso  1.000000 C
   C246       1.0     0.354098      0.408429      0.743489     Biso  1.000000 C
   C247       1.0     0.366845      0.415231      0.638779     Biso  1.000000 C
   C248       1.0     0.335276      0.453345      0.780510     Biso  1.000000 C
   C249       1.0     0.375627      0.385574      0.906819     Biso  1.000000 C
   C250       1.0     0.382527      0.392555      0.806762     Biso  1.000000 C
   C251       1.0     0.407156      0.387254      0.959358     Biso  1.000000 C
   C252       1.0     0.339766      0.331490      0.013487     Biso  1.000000 C
   C253       1.0     0.355841      0.335777      0.918032     Biso  1.000000 C
   C254       1.0     0.323455      0.277719      0.016877     Biso  1.000000 C
   C255       1.0     0.307196      0.379254      0.141183     Biso  1.000000 C
   C256       1.0     0.316026      0.377040      0.037328     Biso  1.000000 C
   C257       1.0     0.279878      0.417719      0.155615     Biso  1.000000 C
   C258       1.0     0.357771      0.436345      0.183555     Biso  1.000000 C
   C259       1.0     0.334331      0.391555      0.206152     Biso  1.000000 C
   C260       1.0     0.389525      0.423758      0.235582     Biso  1.000000 C
   C261       1.0     0.346311      0.486414      0.222100     Biso  1.000000 C
   C262       1.0     0.151357      0.551796      0.587620     Biso  1.000000 C
   C263       1.0     0.423013      0.926361      0.008918     Biso  1.000000 C
   C264       1.0     0.393084      0.962113      0.867023     Biso  1.000000 C
   C265       1.0     0.607199      0.115486      0.853186     Biso  1.000000 C
   C266       1.0     0.600020      0.167498      0.806120     Biso  1.000000 C
   C267       1.0     0.637804      0.121818      0.911247     Biso  1.000000 C
   C268       1.0     0.604756      0.018849      0.830876     Biso  1.000000 C
   C269       1.0     0.610692      0.071169      0.785020     Biso  1.000000 C
   C270       1.0     0.615222      0.978037      0.761009     Biso  1.000000 C
   C271       1.0     0.570828      0.977480      0.967530     Biso  1.000000 C
   C272       1.0     0.572183      0.010116      0.877006     Biso  1.000000 C
   C273       1.0     0.587766      0.925098      0.955094     Biso  1.000000 C
   C274       1.0     0.531297      0.942980      0.094015     Biso  1.000000 C
   C275       1.0     0.536393      0.973403      0.999605     Biso  1.000000 C
   C276       1.0     0.500123      0.919140      0.090277     Biso  1.000000 C
   C277       1.0     0.541657      0.955067      0.272146     Biso  1.000000 C
   C278       1.0     0.535607      0.979365      0.176606     Biso  1.000000 C
   C279       1.0     0.521612      0.977254      0.350349     Biso  1.000000 C
   C280       1.0     0.541632      0.187944      0.837614     Biso  1.000000 C
   C281       1.0     0.412430      0.996140      0.803640     Biso  1.000000 C
   C282       1.0     0.568037      0.218242      0.695849     Biso  1.000000 C
   C283       1.0     0.535445      0.262719      0.568829     Biso  1.000000 C
   C284       1.0     0.408034      0.978689      0.702176     Biso  1.000000 C
   C285       1.0     0.465283      0.043089      0.758330     Biso  1.000000 C
   C286       1.0     0.446908      0.011979      0.834108     Biso  1.000000 C
   C287       1.0     0.500916      0.045395      0.783804     Biso  1.000000 C
   C288       1.0     0.470840      0.134807      0.684171     Biso  1.000000 C
   C289       1.0     0.453820      0.098742      0.750171     Biso  1.000000 C
   C290       1.0     0.460608      0.190299      0.703153     Biso  1.000000 C
   C291       1.0     0.483568      0.141322      0.503622     Biso  1.000000 C
   C292       1.0     0.462147      0.121727      0.580924     Biso  1.000000 C
   C293       1.0     0.467494      0.140670      0.407938     Biso  1.000000 C
   C294       1.0     0.544526      0.150131      0.472060     Biso  1.000000 C
   C295       1.0     0.518416      0.117330      0.509040     Biso  1.000000 C
   C296       1.0     0.565297      0.119219      0.410166     Biso  1.000000 C
   C297       1.0     0.547282      0.211002      0.611508     Biso  1.000000 C
   C298       1.0     0.563961      0.175677      0.544798     Biso  1.000000 C
   C299       1.0     0.568643      0.175937      0.766434     Biso  1.000000 C
   C300       1.0     0.149645      0.556834      0.691886     Biso  1.000000 C
   C301       1.0     0.694096      0.308196      0.215691     Biso  1.000000 C
   C302       1.0     0.717333      0.793243      0.344214     Biso  1.000000 C
   C303       1.0     0.989646      0.060833      0.209999     Biso  1.000000 C
   C304       1.0     0.968433      0.063124      0.126417     Biso  1.000000 C
   C305       1.0     0.976667      0.023963      0.281869     Biso  1.000000 C
   C306       1.0     0.006635      0.162265      0.202592     Biso  1.000000 C
   C307       1.0     0.995264      0.112658      0.250601     Biso  1.000000 C
   C308       1.0     0.036635      0.151276      0.151290     Biso  1.000000 C
   C309       1.0     0.944578      0.021868      0.985426     Biso  1.000000 C
   C310       1.0     0.980184      0.238441      0.296813     Biso  1.000000 C
   C311       1.0     0.965768      0.266681      0.216477     Biso  1.000000 C
   C312       1.0     0.986794      0.250097      0.472340     Biso  1.000000 C
   C313       1.0     0.986984      0.274624      0.375639     Biso  1.000000 C
   C314       1.0     0.953821      0.244410      0.510837     Biso  1.000000 C
   C315       1.0     0.043575      0.266475      0.519187     Biso  1.000000 C
   C316       1.0     0.009136      0.278631      0.536844     Biso  1.000000 C
   C317       1.0     0.010731      0.207322      0.268756     Biso  1.000000 C
   C318       1.0     0.005766      0.026463      0.007932     Biso  1.000000 C
   C319       1.0     0.973459      0.021715      0.049901     Biso  1.000000 C
   C320       1.0     0.007870      0.976151      0.864823     Biso  1.000000 C
   C321       1.0     0.149771      0.190269      0.644669     Biso  1.000000 C
   C322       1.0     0.160034      0.063040      0.696915     Biso  1.000000 C
   C323       1.0     0.131459      0.100452      0.698233     Biso  1.000000 C
   C324       1.0     0.159060      0.026635      0.617125     Biso  1.000000 C
   C325       1.0     0.163365      0.059238      0.875968     Biso  1.000000 C
   C326       1.0     0.161477      0.028501      0.783024     Biso  1.000000 C
   C327       1.0     0.196694      0.079307      0.890153     Biso  1.000000 C
   C328       1.0     0.121052      0.025719      0.986410     Biso  1.000000 C
   C329       1.0     0.154533      0.026612      0.957042     Biso  1.000000 C
   C330       1.0     0.113684      0.073375      0.044769     Biso  1.000000 C
   C331       1.0     0.075158      0.969231      0.045610     Biso  1.000000 C
   C332       1.0     0.110920      0.975285      0.028493     Biso  1.000000 C
   C333       1.0     0.068202      0.915373      0.088412     Biso  1.000000 C
   C334       1.0     0.020751      0.978270      0.959290     Biso  1.000000 C
   C335       1.0     0.056318      0.977785      0.960554     Biso  1.000000 C
   C336       1.0     0.054046      0.217025      0.561743     Biso  1.000000 C
   C337       1.0     0.098266      0.312143      0.506942     Biso  1.000000 C
   C338       1.0     0.065747      0.307548      0.557220     Biso  1.000000 C
   C339       1.0     0.120448      0.337082      0.576660     Biso  1.000000 C
   C340       1.0     0.004279      0.605597      0.603814     Biso  1.000000 C
   C341       1.0     0.981047      0.649800      0.746707     Biso  1.000000 C
   C342       1.0     0.051591      0.674185      0.794374     Biso  1.000000 C
   C343       1.0     0.039031      0.656479      0.699969     Biso  1.000000 C
   C344       1.0     0.081052      0.708220      0.765744     Biso  1.000000 C
   C345       1.0     0.037515      0.623907      0.941824     Biso  1.000000 C
   C346       1.0     0.061795      0.632846      0.861475     Biso  1.000000 C
   C347       1.0     0.039094      0.665582      0.020293     Biso  1.000000 C
   C348       1.0     0.029996      0.521624      0.914663     Biso  1.000000 C
   C349       1.0     0.039838      0.566525      0.979741     Biso  1.000000 C
   C350       1.0     0.994785      0.523513      0.894444     Biso  1.000000 C
   C351       1.0     0.039143      0.426326      0.892080     Biso  1.000000 C
   C352       1.0     0.041151      0.471162      0.957233     Biso  1.000000 C
   C353       1.0     0.012976      0.386101      0.914048     Biso  1.000000 C
   C354       1.0     0.096813      0.425296      0.840142     Biso  1.000000 C
   C355       1.0     0.010442      0.623666      0.703488     Biso  1.000000 C
   C356       1.0     0.139576      0.155773      0.724342     Biso  1.000000 C
   C357       1.0     0.949736      0.569781      0.568494     Biso  1.000000 C
   C358       1.0     0.983745      0.558258      0.598321     Biso  1.000000 C
   C359       1.0     0.110286      0.326635      0.328258     Biso  1.000000 C
   C360       1.0     0.097599      0.348349      0.418072     Biso  1.000000 C
   C361       1.0     0.146699      0.323853      0.334750     Biso  1.000000 C
   C362       1.0     0.067631      0.345212      0.208776     Biso  1.000000 C
   C363       1.0     0.102413      0.350399      0.239552     Biso  1.000000 C
   C364       1.0     0.063889      0.302719      0.133981     Biso  1.000000 C
   C365       1.0     0.037199      0.426571      0.264424     Biso  1.000000 C
   C366       1.0     0.051937      0.396383      0.183138     Biso  1.000000 C
   C367       1.0     0.010416      0.460838      0.228195     Biso  1.000000 C
   C368       1.0     0.051488      0.494842      0.393869     Biso  1.000000 C
   C369       1.0     0.060986      0.463403      0.313526     Biso  1.000000 C
   C370       1.0     0.078010      0.531842      0.418912     Biso  1.000000 C
   C371       1.0     0.028046      0.490849      0.558129     Biso  1.000000 C
   C372       1.0     0.044015      0.462826      0.477950     Biso  1.000000 C
   C373       1.0     0.025063      0.451090      0.631550     Biso  1.000000 C
   C374       1.0     0.997529      0.519120      0.533188     Biso  1.000000 C
   C375       1.0     0.087431      0.260540      0.837743     Biso  1.000000 C
   C376       1.0     0.131052      0.209276      0.917328     Biso  1.000000 C
   C377       1.0     0.117923      0.228880      0.823626     Biso  1.000000 C
   C378       1.0     0.984344      0.075937      0.547626     Biso  1.000000 C
   C379       1.0     0.008319      0.105116      0.692425     Biso  1.000000 C
   C380       1.0     0.050842      0.009952      0.531821     Biso  1.000000 C
   C381       1.0     0.041279      0.064429      0.569512     Biso  1.000000 C
   C382       1.0     0.055124      0.972010      0.611536     Biso  1.000000 C
   C383       1.0     0.074426      0.032345      0.369988     Biso  1.000000 C
   C384       1.0     0.080472      0.016124      0.470953     Biso  1.000000 C
   C385       1.0     0.064006      0.986644      0.316075     Biso  1.000000 C
   C386       1.0     0.118677      0.100925      0.365772     Biso  1.000000 C
   C387       1.0     0.102616      0.052532      0.318022     Biso  1.000000 C
   C388       1.0     0.096968      0.148120      0.378310     Biso  1.000000 C
   C389       1.0     0.177835      0.086746      0.339963     Biso  1.000000 C
   C390       1.0     0.148276      0.118723      0.314360     Biso  1.000000 C
   C391       1.0     0.201964      0.118460      0.398365     Biso  1.000000 C
   C392       1.0     0.221946      0.093162      0.206452     Biso  1.000000 C
   C393       1.0     0.009600      0.063956      0.619400     Biso  1.000000 C
   C394       1.0     0.195288      0.065040      0.253170     Biso  1.000000 C
   C395       1.0     0.926974      0.095013      0.527558     Biso  1.000000 C
   C396       1.0     0.951256      0.064715      0.584224     Biso  1.000000 C
   C397       1.0     0.737004      0.796235      0.509580     Biso  1.000000 C
   C398       1.0     0.981408      0.243181      0.818139     Biso  1.000000 C
   C399       1.0     0.012449      0.186154      0.915661     Biso  1.000000 C
   C400       1.0     0.920916      0.198544      0.899931     Biso  1.000000 C
   C401       1.0     0.953910      0.176379      0.909976     Biso  1.000000 C
   C402       1.0     0.915698      0.239609      0.972218     Biso  1.000000 C
   C403       1.0     0.890149      0.126032      0.805212     Biso  1.000000 C
   C404       1.0     0.894632      0.153605      0.903334     Biso  1.000000 C
   C405       1.0     0.880729      0.162635      0.727964     Biso  1.000000 C
   C406       1.0     0.869561      0.042074      0.721753     Biso  1.000000 C
   C407       1.0     0.869701      0.078303      0.810787     Biso  1.000000 C
   C408       1.0     0.843245      0.002543      0.729262     Biso  1.000000 C
   C409       1.0     0.909378      0.992979      0.618410     Biso  1.000000 C
   C410       1.0     0.899649      0.013078      0.714646     Biso  1.000000 C
   C411       1.0     0.901619      0.934029      0.616866     Biso  1.000000 C
   C412       1.0     0.943998      0.007452      0.593182     Biso  1.000000 C
   C413       1.0     0.069800      0.397761      0.883696     Biso  1.000000 C
   C414       1.0     0.209194      0.140215      0.164634     Biso  1.000000 C
   C415       1.0     0.238519      0.057620      0.133770     Biso  1.000000 C
   C416       1.0     0.328846      0.215841      0.671263     Biso  1.000000 C
   C417       1.0     0.337022      0.191895      0.767855     Biso  1.000000 C
   C418       1.0     0.360289      0.238063      0.630873     Biso  1.000000 C
   C419       1.0     0.271958      0.249624      0.713813     Biso  1.000000 C
   C420       1.0     0.305523      0.260360      0.684390     Biso  1.000000 C
   C421       1.0     0.254835      0.206055      0.652547     Biso  1.000000 C
   C422       1.0     0.222196      0.305173      0.766776     Biso  1.000000 C
   C423       1.0     0.253555      0.302986      0.716696     Biso  1.000000 C
   C424       1.0     0.202918      0.350643      0.730779     Biso  1.000000 C
   C425       1.0     0.200012      0.307624      0.933529     Biso  1.000000 C
   C426       1.0     0.227430      0.308998      0.872093     Biso  1.000000 C
   C427       1.0     0.211007      0.327578      0.025377     Biso  1.000000 C
   C428       1.0     0.148957      0.252009      0.967769     Biso  1.000000 C
   C429       1.0     0.185039      0.253441      0.939248     Biso  1.000000 C
   C430       1.0     0.142419      0.253341      0.071213     Biso  1.000000 C
   C431       1.0     0.374829      0.138253      0.863696     Biso  1.000000 C
   C432       1.0     0.271934      0.071814      0.111480     Biso  1.000000 C
   C433       1.0     0.337850      0.094708      0.745251     Biso  1.000000 C
   C434       1.0     0.347958      0.097162      0.575150     Biso  1.000000 C
   C435       1.0     0.277344      0.127372      0.084305     Biso  1.000000 C
   C436       1.0     0.288737      0.977480      0.051254     Biso  1.000000 C
   C437       1.0     0.283896      0.035475      0.033843     Biso  1.000000 C
   C438       1.0     0.305408      0.965896      0.142072     Biso  1.000000 C
   C439       1.0     0.284111      0.929754      0.890447     Biso  1.000000 C
   C440       1.0     0.304671      0.946796      0.971220     Biso  1.000000 C
   C441       1.0     0.268998      0.880888      0.913624     Biso  1.000000 C
   C442       1.0     0.285063      0.922170      0.709009     Biso  1.000000 C
   C443       1.0     0.304978      0.928800      0.798413     Biso  1.000000 C
   C444       1.0     0.305467      0.900052      0.628256     Biso  1.000000 C
   C445       1.0     0.278930      0.020089      0.693430     Biso  1.000000 C
   C446       1.0     0.263799      0.967919      0.679729     Biso  1.000000 C
   C447       1.0     0.253704      0.063433      0.695719     Biso  1.000000 C
   C448       1.0     0.324241      0.087540      0.651885     Biso  1.000000 C
   C449       1.0     0.309215      0.032807      0.634502     Biso  1.000000 C
   C450       1.0     0.357608      0.144005      0.769680     Biso  1.000000 C
   C451       1.0     0.126422      0.394170      0.818338     Biso  1.000000 C
   C452       1.0     0.110232      0.183887      0.765669     Biso  1.000000 C
   C453       1.0     0.708764      0.792113      0.447884     Biso  1.000000 C
   C454       1.0     0.176125      0.740464      0.676532     Biso  1.000000 C
   C455       1.0     0.263745      0.757968      0.584614     Biso  1.000000 C
   C456       1.0     0.233282      0.733487      0.629384     Biso  1.000000 C
   C457       1.0     0.262760      0.782514      0.486710     Biso  1.000000 C
   C458       1.0     0.304486      0.707964      0.683706     Biso  1.000000 C
   C459       1.0     0.293421      0.723544      0.583192     Biso  1.000000 C
   C460       1.0     0.213209      0.815086      0.714790     Biso  1.000000 C
   C461       1.0     0.310050      0.755968      0.741883     Biso  1.000000 C
   C462       1.0     0.336802      0.678681      0.677352     Biso  1.000000 C
   C463       1.0     0.310591      0.593594      0.701404     Biso  1.000000 C
   C464       1.0     0.395712      0.621506      0.624580     Biso  1.000000 C
   C465       1.0     0.367758      0.592781      0.664553     Biso  1.000000 C
   C466       1.0     0.396451      0.627254      0.521852     Biso  1.000000 C
   C467       1.0     0.432354      0.594979      0.759696     Biso  1.000000 C
   C468       1.0     0.337263      0.620315      0.649254     Biso  1.000000 C
   C469       1.0     0.204699      0.771804      0.644970     Biso  1.000000 C
   C470       1.0     0.190363      0.877949      0.828765     Biso  1.000000 C
   C471       1.0     0.178104      0.889735      0.664246     Biso  1.000000 C
   C472       1.0     0.149731      0.762857      0.119167     Biso  1.000000 C
   C473       1.0     0.177994      0.758189      0.970059     Biso  1.000000 C
   C474       1.0     0.193355      0.860178      0.156134     Biso  1.000000 C
   C475       1.0     0.199191      0.812365      0.093810     Biso  1.000000 C
   C476       1.0     0.183624      0.908323      0.096188     Biso  1.000000 C
   C477       1.0     0.215237      0.913311      0.289125     Biso  1.000000 C
   C478       1.0     0.220886      0.868365      0.217700     Biso  1.000000 C
   C479       1.0     0.246355      0.917472      0.349202     Biso  1.000000 C
   C480       1.0     0.183263      0.878659      0.431697     Biso  1.000000 C
   C481       1.0     0.186974      0.918037      0.350842     Biso  1.000000 C
   C482       1.0     0.174290      0.825800      0.394436     Biso  1.000000 C
   C483       1.0     0.153625      0.870796      0.594200     Biso  1.000000 C
   C484       1.0     0.156341      0.896006      0.500150     Biso  1.000000 C
   C485       1.0     0.121192      0.880983      0.635936     Biso  1.000000 C
   C486       1.0     0.185051      0.850999      0.740024     Biso  1.000000 C
   C487       1.0     0.421701      0.643823      0.808232     Biso  1.000000 C
   C488       1.0     0.488262      0.551929      0.717113     Biso  1.000000 C
   C489       1.0     0.467721      0.585926      0.781699     Biso  1.000000 C
   C490       1.0     0.473147      0.498613      0.719183     Biso  1.000000 C
   C491       1.0     0.512276      0.634914      0.137972     Biso  1.000000 C
   C492       1.0     0.496639      0.713269      0.038148     Biso  1.000000 C
   C493       1.0     0.546124      0.743353      0.239463     Biso  1.000000 C
   C494       1.0     0.545153      0.717689      0.146137     Biso  1.000000 C
   C495       1.0     0.527057      0.794254      0.234345     Biso  1.000000 C
   C496       1.0     0.593057      0.702376      0.313150     Biso  1.000000 C
   C497       1.0     0.580382      0.751662      0.272883     Biso  1.000000 C
   C498       1.0     0.577539      0.687307      0.406223     Biso  1.000000 C
   C499       1.0     0.648878      0.706998      0.244390     Biso  1.000000 C
   C500       1.0     0.627932      0.706395      0.331176     Biso  1.000000 C
   C501       1.0     0.650594      0.657117      0.188208     Biso  1.000000 C
   C502       1.0     0.690036      0.782613      0.275439     Biso  1.000000 C
   C503       1.0     0.682474      0.722926      0.275541     Biso  1.000000 C
   C504       1.0     0.697334      0.799048      0.178478     Biso  1.000000 C
   C505       1.0     0.790242      0.597609      0.061770     Biso  1.000000 C
   C506       1.0     0.512040      0.694773      0.133209     Biso  1.000000 C
   C507       1.0     0.169391      0.792598      0.051684     Biso  1.000000 C
   C508       1.0     0.490228      0.619468      0.295747     Biso  1.000000 C
   C509       1.0     0.519464      0.610823      0.235951     Biso  1.000000 C
   C510       1.0     0.544049      0.597937      0.718172     Biso  1.000000 C
   C511       1.0     0.524137      0.550410      0.738405     Biso  1.000000 C
   C512       1.0     0.546733      0.609494      0.612820     Biso  1.000000 C
   C513       1.0     0.581414      0.600731      0.859322     Biso  1.000000 C
   C514       1.0     0.577443      0.597216      0.753410     Biso  1.000000 C
   C515       1.0     0.570866      0.655964      0.893569     Biso  1.000000 C
   C516       1.0     0.620250      0.564487      0.995846     Biso  1.000000 C
   C517       1.0     0.614691      0.583777      0.896043     Biso  1.000000 C
   C518       1.0     0.656024      0.555563      0.010244     Biso  1.000000 C
   C519       1.0     0.605013      0.498601      0.122686     Biso  1.000000 C
   C520       1.0     0.600886      0.517536      0.022254     Biso  1.000000 C
   C521       1.0     0.623421      0.447948      0.127196     Biso  1.000000 C
   C522       1.0     0.565117      0.552704      0.213450     Biso  1.000000 C
   C523       1.0     0.573891      0.497281      0.177925     Biso  1.000000 C
   C524       1.0     0.588356      0.569647      0.290847     Biso  1.000000 C
   C525       1.0     0.531175      0.555651      0.240747     Biso  1.000000 C
   C526       1.0     0.101151      0.756277      0.014342     Biso  1.000000 C
   C527       1.0     0.426556      0.602933      0.655253     Biso  1.000000 C
   C528       1.0     0.113513      0.772227      0.105228     Biso  1.000000 C
   C529       1.0     0.861385      0.370380      0.105289     Biso  1.000000 C
   C530       1.0     0.915171      0.444929      0.282313     Biso  1.000000 C
   C531       1.0     0.888542      0.431872      0.215076     Biso  1.000000 C
   C532       1.0     0.928574      0.399341      0.340175     Biso  1.000000 C
   C533       1.0     0.906664      0.542971      0.290889     Biso  1.000000 C
   C534       1.0     0.906640      0.490452      0.344214     Biso  1.000000 C
   C535       1.0     0.940467      0.558601      0.260919     Biso  1.000000 C
   C536       1.0     0.855054      0.581666      0.369510     Biso  1.000000 C
   C537       1.0     0.891069      0.585658      0.351101     Biso  1.000000 C
   C538       1.0     0.837636      0.560357      0.281595     Biso  1.000000 C
   C539       1.0     0.852662      0.653372      0.498729     Biso  1.000000 C
   C540       1.0     0.839384      0.630624      0.410713     Biso  1.000000 C
   C541       1.0     0.856008      0.615525      0.570421     Biso  1.000000 C
   C542       1.0     0.837250      0.725082      0.621526     Biso  1.000000 C
   C543       1.0     0.829280      0.697346      0.532108     Biso  1.000000 C
   C544       1.0     0.920399      0.384868      0.094336     Biso  1.000000 C
   C545       1.0     0.812939      0.771101      0.628987     Biso  1.000000 C
   C546       1.0     0.891006      0.383704      0.157173     Biso  1.000000 C
   C547       1.0     0.923078      0.384811      0.918715     Biso  1.000000 C
   C548       1.0     0.763613      0.585987      0.993747     Biso  1.000000 C
   C549       1.0     0.092234      0.750945      0.176244     Biso  1.000000 C
   C550       1.0     0.835277      0.559475      0.960171     Biso  1.000000 C
   C551       1.0     0.823141      0.605697      0.017806     Biso  1.000000 C
   C552       1.0     0.837184      0.511387      0.029156     Biso  1.000000 C
   C553       1.0     0.882404      0.539532      0.845738     Biso  1.000000 C
   C554       1.0     0.864638      0.575575      0.908964     Biso  1.000000 C
   C555       1.0     0.908819      0.569735      0.802191     Biso  1.000000 C
   C556       1.0     0.877874      0.465937      0.728135     Biso  1.000000 C
   C557       1.0     0.862022      0.510487      0.781057     Biso  1.000000 C
   C558       1.0     0.859848      0.449746      0.639524     Biso  1.000000 C
   C559       1.0     0.919032      0.410490      0.822649     Biso  1.000000 C
   C560       1.0     0.884220      0.419731      0.798877     Biso  1.000000 C
   C561       1.0     0.932343      0.377509      0.742546     Biso  1.000000 C
   C562       1.0     0.918882      0.417574      0.004352     Biso  1.000000 C
   C563       1.0     0.938911      0.463383      0.014355     Biso  1.000000 C
   C564       1.0     0.884636      0.765029      0.714216     Biso  1.000000 C
   C565       1.0     0.778981      0.640723      0.129157     Biso  1.000000 C
   C566       1.0     0.915681      0.792907      0.696088     Biso  1.000000 C
   C567       1.0     0.932739      0.780827      0.368956     Biso  1.000000 C
   C568       1.0     0.942463      0.805739      0.461865     Biso  1.000000 C
   C569       1.0     0.897793      0.775014      0.362212     Biso  1.000000 C
   C570       1.0     0.981220      0.724804      0.319164     Biso  1.000000 C
   C571       1.0     0.947791      0.727357      0.353206     Biso  1.000000 C
   C572       1.0     0.983008      0.751292      0.224977     Biso  1.000000 C
   C573       1.0     0.024853      0.664384      0.301042     Biso  1.000000 C
   C574       1.0     0.991450      0.671502      0.311948     Biso  1.000000 C
   C575       1.0     0.034515      0.614857      0.261930     Biso  1.000000 C
   C576       1.0     0.075937      0.698735      0.375639     Biso  1.000000 C
   C577       1.0     0.043563      0.676662      0.392530     Biso  1.000000 C
   C578       1.0     0.095393      0.699422      0.463546     Biso  1.000000 C
   C579       1.0     0.097775      0.771930      0.275658     Biso  1.000000 C
   C580       1.0     0.073310      0.753872      0.342751     Biso  1.000000 C
   C581       1.0     0.870296      0.748273      0.624546     Biso  1.000000 C
   C582       1.0     0.961746      0.889174      0.393965     Biso  1.000000 C
   C583       1.0     0.980081      0.861132      0.548385     Biso  1.000000 C
   C584       1.0     0.096783      0.831071      0.289324     Biso  1.000000 C
   C585       1.0     0.020428      0.792040      0.559557     Biso  1.000000 C
   C586       1.0     0.969638      0.842899      0.457785     Biso  1.000000 C
   C587       1.0     0.886908      0.726582      0.880730     Biso  1.000000 C
   C588       1.0     0.890673      0.718926      0.774927     Biso  1.000000 C
   C589       1.0     0.851593      0.737098      0.901653     Biso  1.000000 C
   C590       1.0     0.941712      0.752956      0.921298     Biso  1.000000 C
   C591       1.0     0.951612      0.700304      0.959836     Biso  1.000000 C
   C592       1.0     0.994871      0.801174      0.926812     Biso  1.000000 C
   C593       1.0     0.907099      0.766323      0.923853     Biso  1.000000 C
   C594       1.0     0.016548      0.823312      0.001653     Biso  1.000000 C
   C595       1.0     0.019349      0.824746      0.774463     Biso  1.000000 C
   C596       1.0     0.992880      0.834792      0.837668     Biso  1.000000 C
   C597       1.0     0.053178      0.833491      0.807063     Biso  1.000000 C
   C598       1.0     0.996907      0.824640      0.610962     Biso  1.000000 C
   C599       1.0     0.014000      0.856525      0.685510     Biso  1.000000 C
   C600       1.0     0.961449      0.795224      0.967858     Biso  1.000000 C
   H1         1.0     0.606897      0.763827      0.819062     Biso  1.000000 H
   H2         1.0     0.630515      0.843415      0.991200     Biso  1.000000 H
   H3         1.0     0.616291      0.782838      0.981497     Biso  1.000000 H
   H4         1.0     0.655549      0.792376      0.010426     Biso  1.000000 H
   H5         1.0     0.604784      0.828311      0.802205     Biso  1.000000 H
   H6         1.0     0.662489      0.765269      0.860620     Biso  1.000000 H
   H7         1.0     0.606637      0.826918      0.467700     Biso  1.000000 H
   H8         1.0     0.647271      0.720319      0.625127     Biso  1.000000 H
   H9         1.0     0.673470      0.736811      0.715869     Biso  1.000000 H
   H10        1.0     0.583019      0.767941      0.683570     Biso  1.000000 H
   H11        1.0     0.602416      0.756296      0.581634     Biso  1.000000 H
   H12        1.0     0.645273      0.813121      0.669890     Biso  1.000000 H
   H13        1.0     0.635686      0.850789      0.539447     Biso  1.000000 H
   H14        1.0     0.731955      0.600387      0.721678     Biso  1.000000 H
   H15        1.0     0.639510      0.706556      0.734346     Biso  1.000000 H
   H16        1.0     0.697999      0.844663      0.967011     Biso  1.000000 H
   H17        1.0     0.712520      0.791311      0.806250     Biso  1.000000 H
   H18        1.0     0.672913      0.851598      0.773356     Biso  1.000000 H
   H19        1.0     0.604803      0.893831      0.507496     Biso  1.000000 H
   H20        1.0     0.701750      0.686945      0.908998     Biso  1.000000 H
   H21        1.0     0.697453      0.655846      0.798467     Biso  1.000000 H
   H22        1.0     0.721044      0.635930      0.876808     Biso  1.000000 H
   H23        1.0     0.777904      0.760117      0.826975     Biso  1.000000 H
   H24        1.0     0.774105      0.714311      0.916897     Biso  1.000000 H
   H25        1.0     0.734154      0.724807      0.749023     Biso  1.000000 H
   H26        1.0     0.749620      0.833132      0.025561     Biso  1.000000 H
   H27        1.0     0.776178      0.781976      0.037970     Biso  1.000000 H
   H28        1.0     0.780577      0.823907      0.952217     Biso  1.000000 H
   H29        1.0     0.740961      0.836983      0.820709     Biso  1.000000 H
   H30        1.0     0.725085      0.751113      0.958770     Biso  1.000000 H
   H31        1.0     0.740055      0.903075      0.897061     Biso  1.000000 H
   H32        1.0     0.709258      0.930999      0.830377     Biso  1.000000 H
   H33        1.0     0.708448      0.933373      0.950359     Biso  1.000000 H
   H34        1.0     0.652812      0.882392      0.865622     Biso  1.000000 H
   H35        1.0     0.548995      0.800876      0.542768     Biso  1.000000 H
   H36        1.0     0.394549      0.751811      0.593790     Biso  1.000000 H
   H37        1.0     0.595872      0.860632      0.665565     Biso  1.000000 H
   H38        1.0     0.378290      0.824185      0.727301     Biso  1.000000 H
   H39        1.0     0.409849      0.886472      0.497602     Biso  1.000000 H
   H40        1.0     0.372695      0.911426      0.533147     Biso  1.000000 H
   H41        1.0     0.353630      0.825384      0.572335     Biso  1.000000 H
   H42        1.0     0.340878      0.814063      0.421365     Biso  1.000000 H
   H43        1.0     0.325339      0.873712      0.430474     Biso  1.000000 H
   H44        1.0     0.333676      0.852193      0.316041     Biso  1.000000 H
   H45        1.0     0.369000      0.948121      0.374518     Biso  1.000000 H
   H46        1.0     0.370196      0.913613      0.279477     Biso  1.000000 H
   H47        1.0     0.386605      0.834655      0.375256     Biso  1.000000 H
   H48        1.0     0.454456      0.897380      0.246118     Biso  1.000000 H
   H49        1.0     0.430746      0.848266      0.298002     Biso  1.000000 H
   H50        1.0     0.416850      0.887193      0.206165     Biso  1.000000 H
   H51        1.0     0.410135      0.971854      0.202517     Biso  1.000000 H
   H52        1.0     0.777755      0.646678      0.821023     Biso  1.000000 H
   H53        1.0     0.374841      0.885750      0.690683     Biso  1.000000 H
   H54        1.0     0.554040      0.867132      0.534001     Biso  1.000000 H
   H55        1.0     0.409035      0.850647      0.680385     Biso  1.000000 H
   H56        1.0     0.386032      0.770903      0.487871     Biso  1.000000 H
   H57        1.0     0.527894      0.921254      0.685920     Biso  1.000000 H
   H58        1.0     0.524162      0.883796      0.783134     Biso  1.000000 H
   H59        1.0     0.559433      0.892205      0.746932     Biso  1.000000 H
   H60        1.0     0.488134      0.849586      0.588508     Biso  1.000000 H
   H61        1.0     0.484923      0.830048      0.709002     Biso  1.000000 H
   H62        1.0     0.539640      0.807964      0.704978     Biso  1.000000 H
   H63        1.0     0.522143      0.726582      0.691018     Biso  1.000000 H
   H64        1.0     0.492055      0.737632      0.758624     Biso  1.000000 H
   H65        1.0     0.487116      0.695067      0.675309     Biso  1.000000 H
   H66        1.0     0.437399      0.779563      0.673832     Biso  1.000000 H
   H67        1.0     0.443885      0.724884      0.617262     Biso  1.000000 H
   H68        1.0     0.496941      0.758441      0.555853     Biso  1.000000 H
   H69        1.0     0.435059      0.725571      0.436036     Biso  1.000000 H
   H70        1.0     0.434743      0.788479      0.384207     Biso  1.000000 H
   H71        1.0     0.469490      0.764968      0.439869     Biso  1.000000 H
   H72        1.0     0.441945      0.828243      0.529293     Biso  1.000000 H
   H73        1.0     0.783532      0.679949      0.722614     Biso  1.000000 H
   H74        1.0     0.682034      0.319811      0.276498     Biso  1.000000 H
   H75        1.0     0.793432      0.609399      0.610422     Biso  1.000000 H
   H76        1.0     0.904902      0.172498      0.350363     Biso  1.000000 H
   H77        1.0     0.843139      0.271776      0.318159     Biso  1.000000 H
   H78        1.0     0.882287      0.266047      0.339526     Biso  1.000000 H
   H79        1.0     0.848439      0.170143      0.370582     Biso  1.000000 H
   H80        1.0     0.894220      0.246338      0.496324     Biso  1.000000 H
   H81        1.0     0.870625      0.241914      0.593045     Biso  1.000000 H
   H82        1.0     0.872691      0.187173      0.517411     Biso  1.000000 H
   H83        1.0     0.861301      0.328956      0.460286     Biso  1.000000 H
   H84        1.0     0.840921      0.308723      0.553277     Biso  1.000000 H
   H85        1.0     0.825382      0.229067      0.460525     Biso  1.000000 H
   H86        1.0     0.760213      0.321349      0.447495     Biso  1.000000 H
   H87        1.0     0.778588      0.263883      0.484824     Biso  1.000000 H
   H88        1.0     0.780857      0.316838      0.551528     Biso  1.000000 H
   H89        1.0     0.838436      0.399788      0.436958     Biso  1.000000 H
   H90        1.0     0.812703      0.392494      0.527961     Biso  1.000000 H
   H91        1.0     0.902059      0.206792      0.248264     Biso  1.000000 H
   H92        1.0     0.810033      0.324948      0.359000     Biso  1.000000 H
   H93        1.0     0.889258      0.142097      0.247123     Biso  1.000000 H
   H94        1.0     0.839199      0.145841      0.217590     Biso  1.000000 H
   H95        1.0     0.443878      0.989140      0.261035     Biso  1.000000 H
   H96        1.0     0.686952      0.336654      0.165516     Biso  1.000000 H
   H97        1.0     0.777027      0.297196      0.180104     Biso  1.000000 H
   H98        1.0     0.750065      0.298467      0.098497     Biso  1.000000 H
   H99        1.0     0.731028      0.288631      0.302798     Biso  1.000000 H
   H100       1.0     0.705996      0.228185      0.086375     Biso  1.000000 H
   H101       1.0     0.737916      0.219746      0.020888     Biso  1.000000 H
   H102       1.0     0.722838      0.165097      0.084360     Biso  1.000000 H
   H103       1.0     0.796139      0.211326      0.106307     Biso  1.000000 H
   H104       1.0     0.777436      0.154944      0.142680     Biso  1.000000 H
   H105       1.0     0.735249      0.214318      0.219551     Biso  1.000000 H
   H106       1.0     0.763442      0.137677      0.309276     Biso  1.000000 H
   H107       1.0     0.799234      0.121169      0.318323     Biso  1.000000 H
   H108       1.0     0.786950      0.174620      0.388560     Biso  1.000000 H
   H109       1.0     0.843376      0.208219      0.183193     Biso  1.000000 H
   H110       1.0     0.800360      0.232471      0.276847     Biso  1.000000 H
   H111       1.0     0.794826      0.577811      0.716300     Biso  1.000000 H
   H112       1.0     0.784353      0.481926      0.519228     Biso  1.000000 H
   H113       1.0     0.784451      0.502216      0.405779     Biso  1.000000 H
   H114       1.0     0.683955      0.501506      0.583493     Biso  1.000000 H
   H115       1.0     0.646946      0.471662      0.450481     Biso  1.000000 H
   H116       1.0     0.633576      0.534429      0.591986     Biso  1.000000 H
   H117       1.0     0.627787      0.599857      0.560513     Biso  1.000000 H
   H118       1.0     0.621425      0.551971      0.472333     Biso  1.000000 H
   H119       1.0     0.685209      0.588097      0.628905     Biso  1.000000 H
   H120       1.0     0.674862      0.641174      0.552895     Biso  1.000000 H
   H121       1.0     0.671505      0.584536      0.439165     Biso  1.000000 H
   H122       1.0     0.725721      0.666903      0.420463     Biso  1.000000 H
   H123       1.0     0.756696      0.621109      0.438995     Biso  1.000000 H
   H124       1.0     0.722186      0.599811      0.399315     Biso  1.000000 H
   H125       1.0     0.718201      0.674601      0.633285     Biso  1.000000 H
   H126       1.0     0.754642      0.669418      0.582536     Biso  1.000000 H
   H127       1.0     0.732296      0.575693      0.559079     Biso  1.000000 H
   H128       1.0     0.770288      0.557151      0.625400     Biso  1.000000 H
   H129       1.0     0.712978      0.507292      0.518408     Biso  1.000000 H
   H130       1.0     0.821791      0.483865      0.468179     Biso  1.000000 H
   H131       1.0     0.669904      0.410277      0.534616     Biso  1.000000 H
   H132       1.0     0.669106      0.388040      0.418762     Biso  1.000000 H
   H133       1.0     0.783012      0.377082      0.287902     Biso  1.000000 H
   H134       1.0     0.810950      0.427231      0.286925     Biso  1.000000 H
   H135       1.0     0.765480      0.408273      0.437649     Biso  1.000000 H
   H136       1.0     0.759406      0.404773      0.128904     Biso  1.000000 H
   H137       1.0     0.762307      0.472254      0.100889     Biso  1.000000 H
   H138       1.0     0.795257      0.436090      0.137808     Biso  1.000000 H
   H139       1.0     0.730232      0.416929      0.343496     Biso  1.000000 H
   H140       1.0     0.720218      0.430040      0.229999     Biso  1.000000 H
   H141       1.0     0.774565      0.486761      0.264192     Biso  1.000000 H
   H142       1.0     0.709810      0.522613      0.173859     Biso  1.000000 H
   H143       1.0     0.706584      0.570204      0.267376     Biso  1.000000 H
   H144       1.0     0.741925      0.545991      0.235746     Biso  1.000000 H
   H145       1.0     0.675040      0.452502      0.295501     Biso  1.000000 H
   H146       1.0     0.666839      0.514479      0.327602     Biso  1.000000 H
   H147       1.0     0.726341      0.510544      0.375454     Biso  1.000000 H
   H148       1.0     0.706981      0.402025      0.477656     Biso  1.000000 H
   H149       1.0     0.429775      0.935044      0.389653     Biso  1.000000 H
   H150       1.0     0.133916      0.522697      0.561928     Biso  1.000000 H
   H151       1.0     0.438073      0.034555      0.415537     Biso  1.000000 H
   H152       1.0     0.243671      0.462502      0.624033     Biso  1.000000 H
   H153       1.0     0.223467      0.505044      0.569034     Biso  1.000000 H
   H154       1.0     0.265266      0.453391      0.374757     Biso  1.000000 H
   H155       1.0     0.284232      0.460101      0.479439     Biso  1.000000 H
   H156       1.0     0.215460      0.457429      0.439493     Biso  1.000000 H
   H157       1.0     0.310053      0.528720      0.511035     Biso  1.000000 H
   H158       1.0     0.205146      0.444216      0.606903     Biso  1.000000 H
   H159       1.0     0.317791      0.523235      0.400784     Biso  1.000000 H
   H160       1.0     0.236961      0.526074      0.322471     Biso  1.000000 H
   H161       1.0     0.273635      0.547212      0.288306     Biso  1.000000 H
   H162       1.0     0.253475      0.547559      0.488124     Biso  1.000000 H
   H163       1.0     0.278696      0.645036      0.270594     Biso  1.000000 H
   H164       1.0     0.257640      0.688552      0.328108     Biso  1.000000 H
   H165       1.0     0.287251      0.650239      0.383825     Biso  1.000000 H
   H166       1.0     0.306461      0.585055      0.445513     Biso  1.000000 H
   H167       1.0     0.273708      0.371891      0.392475     Biso  1.000000 H
   H168       1.0     0.219084      0.373418      0.519939     Biso  1.000000 H
   H169       1.0     0.257174      0.386025      0.541709     Biso  1.000000 H
   H170       1.0     0.275680      0.147418      0.310240     Biso  1.000000 H
   H171       1.0     0.309933      0.127127      0.270198     Biso  1.000000 H
   H172       1.0     0.305134      0.126211      0.382226     Biso  1.000000 H
   H173       1.0     0.308265      0.255303      0.457341     Biso  1.000000 H
   H174       1.0     0.279089      0.209028      0.442295     Biso  1.000000 H
   H175       1.0     0.306908      0.226452      0.271510     Biso  1.000000 H
   H176       1.0     0.259241      0.277109      0.213983     Biso  1.000000 H
   H177       1.0     0.250148      0.213246      0.268907     Biso  1.000000 H
   H178       1.0     0.226590      0.267376      0.288777     Biso  1.000000 H
   H179       1.0     0.263155      0.306246      0.493351     Biso  1.000000 H
   H180       1.0     0.226864      0.288857      0.443334     Biso  1.000000 H
   H181       1.0     0.287742      0.301330      0.329208     Biso  1.000000 H
   H182       1.0     0.234775      0.354105      0.267171     Biso  1.000000 H
   H183       1.0     0.206306      0.345028      0.344842     Biso  1.000000 H
   H184       1.0     0.214557      0.405009      0.316506     Biso  1.000000 H
   H185       1.0     0.218775      0.584533      0.208851     Biso  1.000000 H
   H186       1.0     0.215953      0.646544      0.222421     Biso  1.000000 H
   H187       1.0     0.230503      0.608521      0.407180     Biso  1.000000 H
   H188       1.0     0.143931      0.656273      0.360162     Biso  1.000000 H
   H189       1.0     0.235267      0.454712      0.885390     Biso  1.000000 H
   H190       1.0     0.201716      0.515174      0.791730     Biso  1.000000 H
   H191       1.0     0.229789      0.559319      0.825273     Biso  1.000000 H
   H192       1.0     0.207385      0.544067      0.990168     Biso  1.000000 H
   H193       1.0     0.202745      0.637174      0.939276     Biso  1.000000 H
   H194       1.0     0.216365      0.650162      0.818242     Biso  1.000000 H
   H195       1.0     0.183163      0.675716      0.860067     Biso  1.000000 H
   H196       1.0     0.194322      0.595693      0.683809     Biso  1.000000 H
   H197       1.0     0.162547      0.634338      0.717762     Biso  1.000000 H
   H198       1.0     0.162818      0.583082      0.866142     Biso  1.000000 H
   H199       1.0     0.115148      0.608235      0.737209     Biso  1.000000 H
   H200       1.0     0.099329      0.561529      0.678677     Biso  1.000000 H
   H201       1.0     0.111007      0.549021      0.798433     Biso  1.000000 H
   H202       1.0     0.144043      0.584998      0.548426     Biso  1.000000 H
   H203       1.0     0.686449      0.271360      0.197843     Biso  1.000000 H
   H204       1.0     0.235496      0.462162      0.999500     Biso  1.000000 H
   H205       1.0     0.362952      0.282276      0.351716     Biso  1.000000 H
   H206       1.0     0.257979      0.502288      0.933597     Biso  1.000000 H
   H207       1.0     0.173626      0.449849      0.906573     Biso  1.000000 H
   H208       1.0     0.183051      0.672910      0.396432     Biso  1.000000 H
   H209       1.0     0.172009      0.691849      0.289597     Biso  1.000000 H
   H210       1.0     0.164917      0.610250      0.164416     Biso  1.000000 H
   H211       1.0     0.133675      0.588601      0.234099     Biso  1.000000 H
   H212       1.0     0.179574      0.581758      0.358864     Biso  1.000000 H
   H213       1.0     0.168646      0.499727      0.338781     Biso  1.000000 H
   H214       1.0     0.132578      0.481303      0.286467     Biso  1.000000 H
   H215       1.0     0.168188      0.451723      0.259484     Biso  1.000000 H
   H216       1.0     0.153351      0.547063      0.058176     Biso  1.000000 H
   H217       1.0     0.127311      0.507731      0.112061     Biso  1.000000 H
   H218       1.0     0.193456      0.524494      0.191898     Biso  1.000000 H
   H219       1.0     0.120666      0.427895      0.027420     Biso  1.000000 H
   H220       1.0     0.152759      0.386868      0.030652     Biso  1.000000 H
   H221       1.0     0.138114      0.416155      0.124012     Biso  1.000000 H
   H222       1.0     0.154986      0.505555      0.930447     Biso  1.000000 H
   H223       1.0     0.187293      0.454509      0.088637     Biso  1.000000 H
   H224       1.0     0.357058      0.172460      0.339321     Biso  1.000000 H
   H225       1.0     0.348969      0.202540      0.437655     Biso  1.000000 H
   H226       1.0     0.377566      0.202494      0.199784     Biso  1.000000 H
   H227       1.0     0.491311      0.197574      0.212384     Biso  1.000000 H
   H228       1.0     0.497301      0.258918      0.185899     Biso  1.000000 H
   H229       1.0     0.509143      0.183242      0.030536     Biso  1.000000 H
   H230       1.0     0.546513      0.148185      0.090947     Biso  1.000000 H
   H231       1.0     0.574801      0.151494      0.177139     Biso  1.000000 H
   H232       1.0     0.537986      0.126979      0.199770     Biso  1.000000 H
   H233       1.0     0.552238      0.289364      0.156264     Biso  1.000000 H
   H234       1.0     0.560650      0.254387      0.062576     Biso  1.000000 H
   H235       1.0     0.540803      0.214654      0.259723     Biso  1.000000 H
   H236       1.0     0.615395      0.257899      0.043744     Biso  1.000000 H
   H237       1.0     0.646188      0.232120      0.107729     Biso  1.000000 H
   H238       1.0     0.616420      0.188326      0.074609     Biso  1.000000 H
   H239       1.0     0.597568      0.329567      0.167279     Biso  1.000000 H
   H240       1.0     0.632609      0.308303      0.194057     Biso  1.000000 H
   H241       1.0     0.602674      0.217097      0.229015     Biso  1.000000 H
   H242       1.0     0.496835      0.246750      0.934383     Biso  1.000000 H
   H243       1.0     0.633798      0.258399      0.345792     Biso  1.000000 H
   H244       1.0     0.514826      0.280509      0.019830     Biso  1.000000 H
   H245       1.0     0.463233      0.134643      0.173845     Biso  1.000000 H
   H246       1.0     0.401782      0.065383      0.440607     Biso  1.000000 H
   H247       1.0     0.439193      0.079089      0.279286     Biso  1.000000 H
   H248       1.0     0.403188      0.108131      0.280933     Biso  1.000000 H
   H249       1.0     0.378318      0.020139      0.308907     Biso  1.000000 H
   H250       1.0     0.362456      0.034303      0.152834     Biso  1.000000 H
   H251       1.0     0.356857      0.098940      0.155376     Biso  1.000000 H
   H252       1.0     0.371158      0.069364      0.057041     Biso  1.000000 H
   H253       1.0     0.409875      0.154399      0.127388     Biso  1.000000 H
   H254       1.0     0.412465      0.123391      0.033802     Biso  1.000000 H
   H255       1.0     0.415828      0.039772      0.130196     Biso  1.000000 H
   H256       1.0     0.471956      0.056975      0.062323     Biso  1.000000 H
   H257       1.0     0.476811      0.100715      0.973229     Biso  1.000000 H
   H258       1.0     0.500991      0.094982      0.070919     Biso  1.000000 H
   H259       1.0     0.446655      0.213238      0.095764     Biso  1.000000 H
   H260       1.0     0.457133      0.187173      0.989970     Biso  1.000000 H
   H261       1.0     0.472756      0.276391      0.020122     Biso  1.000000 H
   H262       1.0     0.405663      0.997616      0.460348     Biso  1.000000 H
   H263       1.0     0.635450      0.309158      0.406312     Biso  1.000000 H
   H264       1.0     0.577413      0.378784      0.265271     Biso  1.000000 H
   H265       1.0     0.468207      0.437387      0.555928     Biso  1.000000 H
   H266       1.0     0.472946      0.302402      0.613722     Biso  1.000000 H
   H267       1.0     0.483426      0.363242      0.614986     Biso  1.000000 H
   H268       1.0     0.444360      0.349727      0.635588     Biso  1.000000 H
   H269       1.0     0.420306      0.291773      0.530858     Biso  1.000000 H
   H270       1.0     0.452636      0.263009      0.486867     Biso  1.000000 H
   H271       1.0     0.478439      0.339582      0.458462     Biso  1.000000 H
   H272       1.0     0.458343      0.319196      0.297141     Biso  1.000000 H
   H273       1.0     0.467300      0.257536      0.327131     Biso  1.000000 H
   H274       1.0     0.437420      0.272719      0.242066     Biso  1.000000 H
   H275       1.0     0.398237      0.225124      0.446695     Biso  1.000000 H
   H276       1.0     0.414363      0.210486      0.342642     Biso  1.000000 H
   H277       1.0     0.404877      0.319986      0.362922     Biso  1.000000 H
   H278       1.0     0.353829      0.261028      0.182373     Biso  1.000000 H
   H279       1.0     0.393084      0.260780      0.203453     Biso  1.000000 H
   H280       1.0     0.420566      0.397078      0.515470     Biso  1.000000 H
   H281       1.0     0.607489      0.267822      0.440792     Biso  1.000000 H
   H282       1.0     0.430145      0.387903      0.400169     Biso  1.000000 H
   H283       1.0     0.426259      0.488322      0.547251     Biso  1.000000 H
   H284       1.0     0.611160      0.386807      0.316191     Biso  1.000000 H
   H285       1.0     0.571357      0.290109      0.317373     Biso  1.000000 H
   H286       1.0     0.594409      0.345704      0.517479     Biso  1.000000 H
   H287       1.0     0.598972      0.413124      0.502856     Biso  1.000000 H
   H288       1.0     0.564941      0.387353      0.549000     Biso  1.000000 H
   H289       1.0     0.533636      0.418437      0.318255     Biso  1.000000 H
   H290       1.0     0.561434      0.460960      0.376110     Biso  1.000000 H
   H291       1.0     0.546555      0.347979      0.397320     Biso  1.000000 H
   H292       1.0     0.530803      0.522242      0.478394     Biso  1.000000 H
   H293       1.0     0.508368      0.491105      0.557186     Biso  1.000000 H
   H294       1.0     0.550537      0.478586      0.548692     Biso  1.000000 H
   H295       1.0     0.483208      0.417605      0.360599     Biso  1.000000 H
   H296       1.0     0.490740      0.483681      0.383770     Biso  1.000000 H
   H297       1.0     0.519310      0.407506      0.501285     Biso  1.000000 H
   H298       1.0     0.425362      0.496765      0.421693     Biso  1.000000 H
   H299       1.0     0.453347      0.525666      0.481284     Biso  1.000000 H
   H300       1.0     0.172641      0.542406      0.549587     Biso  1.000000 H
   H301       1.0     0.423357      0.515517      0.082098     Biso  1.000000 H
   H302       1.0     0.329920      0.456708      0.590579     Biso  1.000000 H
   H303       1.0     0.804387      0.845621      0.162632     Biso  1.000000 H
   H304       1.0     0.756727      0.885972      0.156988     Biso  1.000000 H
   H305       1.0     0.732596      0.914174      0.242292     Biso  1.000000 H
   H306       1.0     0.758327      0.950762      0.156578     Biso  1.000000 H
   H307       1.0     0.748759      0.936060      0.384829     Biso  1.000000 H
   H308       1.0     0.765630      0.990815      0.334442     Biso  1.000000 H
   H309       1.0     0.779577      0.841140      0.328825     Biso  1.000000 H
   H310       1.0     0.801684      0.937563      0.241390     Biso  1.000000 H
   H311       1.0     0.841183      0.006501      0.448144     Biso  1.000000 H
   H312       1.0     0.841279      0.960861      0.364460     Biso  1.000000 H
   H313       1.0     0.766434      0.022750      0.480765     Biso  1.000000 H
   H314       1.0     0.798621      0.013616      0.558402     Biso  1.000000 H
   H315       1.0     0.809584      0.927312      0.459617     Biso  1.000000 H
   H316       1.0     0.802667      0.915312      0.644143     Biso  1.000000 H
   H317       1.0     0.817586      0.011524      0.343120     Biso  1.000000 H
   H318       1.0     0.809647      0.865953      0.364788     Biso  1.000000 H
   H319       1.0     0.825981      0.768498      0.295569     Biso  1.000000 H
   H320       1.0     0.826901      0.765491      0.173347     Biso  1.000000 H
   H321       1.0     0.875906      0.966041      0.992102     Biso  1.000000 H
   H322       1.0     0.839585      0.026108      0.959686     Biso  1.000000 H
   H323       1.0     0.798116      0.907186      0.922425     Biso  1.000000 H
   H324       1.0     0.824881      0.952376      0.904045     Biso  1.000000 H
   H325       1.0     0.833359      0.894628      0.868485     Biso  1.000000 H
   H326       1.0     0.871592      0.861285      0.989772     Biso  1.000000 H
   H327       1.0     0.840355      0.830563      0.007153     Biso  1.000000 H
   H328       1.0     0.821645      0.910876      0.075634     Biso  1.000000 H
   H329       1.0     0.910611      0.862170      0.204348     Biso  1.000000 H
   H330       1.0     0.913136      0.843491      0.083697     Biso  1.000000 H
   H331       1.0     0.903713      0.903415      0.123643     Biso  1.000000 H
   H332       1.0     0.848371      0.904033      0.214714     Biso  1.000000 H
   H333       1.0     0.861582      0.854300      0.280748     Biso  1.000000 H
   H334       1.0     0.864472      0.805102      0.136059     Biso  1.000000 H
   H335       1.0     0.790292      0.767636      0.233867     Biso  1.000000 H
   H336       1.0     0.782448      0.954644      0.718855     Biso  1.000000 H
   H337       1.0     0.766708      0.899808      0.684055     Biso  1.000000 H
   H338       1.0     0.742863      0.029452      0.651994     Biso  1.000000 H
   H339       1.0     0.721488      0.970670      0.670546     Biso  1.000000 H
   H340       1.0     0.656717      0.110536      0.116591     Biso  1.000000 H
   H341       1.0     0.624476      0.096715      0.171563     Biso  1.000000 H
   H342       1.0     0.647278      0.148254      0.206664     Biso  1.000000 H
   H343       1.0     0.691878      0.000475      0.240809     Biso  1.000000 H
   H344       1.0     0.687196      0.030688      0.133749     Biso  1.000000 H
   H345       1.0     0.649236      0.066089      0.306194     Biso  1.000000 H
   H346       1.0     0.672544      0.957621      0.064264     Biso  1.000000 H
   H347       1.0     0.674366      0.916197      0.153162     Biso  1.000000 H
   H348       1.0     0.639865      0.918044      0.080896     Biso  1.000000 H
   H349       1.0     0.631248      0.987739      0.319765     Biso  1.000000 H
   H350       1.0     0.650526      0.927388      0.301582     Biso  1.000000 H
   H351       1.0     0.628250      0.004791      0.150524     Biso  1.000000 H
   H352       1.0     0.610468      0.859105      0.336499     Biso  1.000000 H
   H353       1.0     0.579979      0.850754      0.260249     Biso  1.000000 H
   H354       1.0     0.622667      0.853792      0.225271     Biso  1.000000 H
   H355       1.0     0.658268      0.137009      0.374655     Biso  1.000000 H
   H356       1.0     0.865038      0.960892      0.107128     Biso  1.000000 H
   H357       1.0     0.707059      0.116513      0.244301     Biso  1.000000 H
   H358       1.0     0.718391      0.181135      0.342348     Biso  1.000000 H
   H359       1.0     0.748130      0.933678      0.540834     Biso  1.000000 H
   H360       1.0     0.698462      0.922697      0.501749     Biso  1.000000 H
   H361       1.0     0.674387      0.944373      0.587108     Biso  1.000000 H
   H362       1.0     0.663961      0.958392      0.481605     Biso  1.000000 H
   H363       1.0     0.697882      0.073750      0.630723     Biso  1.000000 H
   H364       1.0     0.667368      0.033479      0.630627     Biso  1.000000 H
   H365       1.0     0.713287      0.011853      0.481640     Biso  1.000000 H
   H366       1.0     0.639168      0.144093      0.511643     Biso  1.000000 H
   H367       1.0     0.622122      0.091616      0.561203     Biso  1.000000 H
   H368       1.0     0.652026      0.130070      0.616572     Biso  1.000000 H
   H369       1.0     0.716912      0.101677      0.472176     Biso  1.000000 H
   H370       1.0     0.695423      0.151616      0.515354     Biso  1.000000 H
   H371       1.0     0.660189      0.058959      0.461796     Biso  1.000000 H
   H372       1.0     0.685148      0.202612      0.290021     Biso  1.000000 H
   H373       1.0     0.690607      0.217128      0.407467     Biso  1.000000 H
   H374       1.0     0.707454      0.065845      0.325218     Biso  1.000000 H
   H375       1.0     0.855852      0.058410      0.162571     Biso  1.000000 H
   H376       1.0     0.840795      0.093341      0.072238     Biso  1.000000 H
   H377       1.0     0.879234      0.063666      0.062207     Biso  1.000000 H
   H378       1.0     0.600462      0.472678      0.809250     Biso  1.000000 H
   H379       1.0     0.612475      0.438716      0.703467     Biso  1.000000 H
   H380       1.0     0.582581      0.335441      0.888096     Biso  1.000000 H
   H381       1.0     0.590911      0.393792      0.937499     Biso  1.000000 H
   H382       1.0     0.569827      0.377162      0.740810     Biso  1.000000 H
   H383       1.0     0.634535      0.289223      0.927250     Biso  1.000000 H
   H384       1.0     0.661654      0.333147      0.972881     Biso  1.000000 H
   H385       1.0     0.623826      0.342112      0.005836     Biso  1.000000 H
   H386       1.0     0.635022      0.354120      0.713833     Biso  1.000000 H
   H387       1.0     0.631018      0.300494      0.768108     Biso  1.000000 H
   H388       1.0     0.641431      0.403624      0.863019     Biso  1.000000 H
   H389       1.0     0.675251      0.253101      0.692015     Biso  1.000000 H
   H390       1.0     0.677029      0.304754      0.626623     Biso  1.000000 H
   H391       1.0     0.711252      0.280112      0.667061     Biso  1.000000 H
   H392       1.0     0.691672      0.406513      0.791156     Biso  1.000000 H
   H393       1.0     0.576977      0.468910      0.705586     Biso  1.000000 H
   H394       1.0     0.688639      0.396964      0.675534     Biso  1.000000 H
   H395       1.0     0.537635      0.358380      0.925794     Biso  1.000000 H
   H396       1.0     0.549795      0.455727      0.880867     Biso  1.000000 H
   H397       1.0     0.442719      0.572990      0.071534     Biso  1.000000 H
   H398       1.0     0.152476      0.518830      0.726044     Biso  1.000000 H
   H399       1.0     0.451922      0.535491      0.168372     Biso  1.000000 H
   H400       1.0     0.459077      0.431158      0.073256     Biso  1.000000 H
   H401       1.0     0.483107      0.464261      0.149533     Biso  1.000000 H
   H402       1.0     0.491908      0.530693      0.032285     Biso  1.000000 H
   H403       1.0     0.541639      0.373742      0.066040     Biso  1.000000 H
   H404       1.0     0.520669      0.400368      0.155888     Biso  1.000000 H
   H405       1.0     0.502549      0.352735      0.095443     Biso  1.000000 H
   H406       1.0     0.484928      0.431135      0.888677     Biso  1.000000 H
   H407       1.0     0.476678      0.380151      0.951309     Biso  1.000000 H
   H408       1.0     0.527253      0.456017      0.018305     Biso  1.000000 H
   H409       1.0     0.527604      0.318185      0.788354     Biso  1.000000 H
   H410       1.0     0.491727      0.324132      0.838625     Biso  1.000000 H
   H411       1.0     0.502851      0.364391      0.742751     Biso  1.000000 H
   H412       1.0     0.535529      0.446960      0.778843     Biso  1.000000 H
   H413       1.0     0.579203      0.000056      0.302054     Biso  1.000000 H
   H414       1.0     0.687706      0.311574      0.816199     Biso  1.000000 H
   H415       1.0     0.742708      0.422471      0.607559     Biso  1.000000 H
   H416       1.0     0.791646      0.101849      0.787015     Biso  1.000000 H
   H417       1.0     0.755114      0.105280      0.746611     Biso  1.000000 H
   H418       1.0     0.748336      0.197284      0.805075     Biso  1.000000 H
   H419       1.0     0.718833      0.048364      0.821966     Biso  1.000000 H
   H420       1.0     0.711142      0.063379      0.937855     Biso  1.000000 H
   H421       1.0     0.708193      0.110334      0.849366     Biso  1.000000 H
   H422       1.0     0.797133      0.053646      0.894649     Biso  1.000000 H
   H423       1.0     0.764439      0.017139      0.917369     Biso  1.000000 H
   H424       1.0     0.752899      0.128009      0.934151     Biso  1.000000 H
   H425       1.0     0.737743      0.012291      0.066211     Biso  1.000000 H
   H426       1.0     0.753006      0.048578      0.159448     Biso  1.000000 H
   H427       1.0     0.732610      0.082265      0.080861     Biso  1.000000 H
   H428       1.0     0.790806      0.981201      0.034431     Biso  1.000000 H
   H429       1.0     0.802505      0.004307      0.131385     Biso  1.000000 H
   H430       1.0     0.787362      0.091330      0.049894     Biso  1.000000 H
   H431       1.0     0.779203      0.231620      0.652589     Biso  1.000000 H
   H432       1.0     0.768732      0.428948      0.687765     Biso  1.000000 H
   H433       1.0     0.759693      0.179918      0.641259     Biso  1.000000 H
   H434       1.0     0.807637      0.271105      0.754955     Biso  1.000000 H
   H435       1.0     0.733880      0.463300      0.703249     Biso  1.000000 H
   H436       1.0     0.730871      0.355574      0.881455     Biso  1.000000 H
   H437       1.0     0.744742      0.417571      0.848724     Biso  1.000000 H
   H438       1.0     0.737594      0.343948      0.690587     Biso  1.000000 H
   H439       1.0     0.794295      0.429643      0.899699     Biso  1.000000 H
   H440       1.0     0.783726      0.386857      0.978948     Biso  1.000000 H
   H441       1.0     0.819212      0.371983      0.926771     Biso  1.000000 H
   H442       1.0     0.754244      0.282719      0.837812     Biso  1.000000 H
   H443       1.0     0.773332      0.296593      0.936454     Biso  1.000000 H
   H444       1.0     0.790345      0.361735      0.774408     Biso  1.000000 H
   H445       1.0     0.842779      0.315727      0.845745     Biso  1.000000 H
   H446       1.0     0.834091      0.277483      0.943710     Biso  1.000000 H
   H447       1.0     0.851097      0.250902      0.844535     Biso  1.000000 H
   H448       1.0     0.791190      0.198139      0.913857     Biso  1.000000 H
   H449       1.0     0.819530      0.185639      0.831778     Biso  1.000000 H
   H450       1.0     0.799632      0.170429      0.653661     Biso  1.000000 H
   H451       1.0     0.576996      0.943487      0.368293     Biso  1.000000 H
   H452       1.0     0.597418      0.928701      0.176209     Biso  1.000000 H
   H453       1.0     0.521394      0.950495      0.409927     Biso  1.000000 H
   H454       1.0     0.286397      0.610945      0.924660     Biso  1.000000 H
   H455       1.0     0.264374      0.665636      0.939781     Biso  1.000000 H
   H456       1.0     0.298728      0.670972      0.870672     Biso  1.000000 H
   H457       1.0     0.354121      0.643216      0.065719     Biso  1.000000 H
   H458       1.0     0.353700      0.648292      0.944175     Biso  1.000000 H
   H459       1.0     0.295492      0.649823      0.077643     Biso  1.000000 H
   H460       1.0     0.391924      0.570811      0.001741     Biso  1.000000 H
   H461       1.0     0.369038      0.514861      0.977855     Biso  1.000000 H
   H462       1.0     0.371038      0.561113      0.895319     Biso  1.000000 H
   H463       1.0     0.319075      0.510681      0.060294     Biso  1.000000 H
   H464       1.0     0.306576      0.563414      0.113120     Biso  1.000000 H
   H465       1.0     0.323806      0.568178      0.949327     Biso  1.000000 H
   H466       1.0     0.328565      0.575544      0.279054     Biso  1.000000 H
   H467       1.0     0.369314      0.576632      0.283454     Biso  1.000000 H
   H468       1.0     0.350979      0.616139      0.200836     Biso  1.000000 H
   H469       1.0     0.338306      0.704685      0.153544     Biso  1.000000 H
   H470       1.0     0.321408      0.488655      0.233245     Biso  1.000000 H
   H471       1.0     0.295489      0.739987      0.009934     Biso  1.000000 H
   H472       1.0     0.304903      0.757151      0.253478     Biso  1.000000 H
   H473       1.0     0.423610      0.899002      0.864857     Biso  1.000000 H
   H474       1.0     0.428975      0.756510      0.880259     Biso  1.000000 H
   H475       1.0     0.425374      0.815575      0.833808     Biso  1.000000 H
   H476       1.0     0.449154      0.804212      0.933693     Biso  1.000000 H
   H477       1.0     0.401707      0.837552      0.093858     Biso  1.000000 H
   H478       1.0     0.429230      0.790010      0.061920     Biso  1.000000 H
   H479       1.0     0.381582      0.785308      0.938176     Biso  1.000000 H
   H480       1.0     0.402046      0.763006      0.239818     Biso  1.000000 H
   H481       1.0     0.384790      0.704537      0.226282     Biso  1.000000 H
   H482       1.0     0.421883      0.720315      0.177761     Biso  1.000000 H
   H483       1.0     0.337106      0.810151      0.070926     Biso  1.000000 H
   H484       1.0     0.345936      0.806560      0.181000     Biso  1.000000 H
   H485       1.0     0.378341      0.727849      0.051664     Biso  1.000000 H
   H486       1.0     0.290236      0.792178      0.155123     Biso  1.000000 H
   H487       1.0     0.281406      0.723285      0.176011     Biso  1.000000 H
   H488       1.0     0.331860      0.730964      0.969218     Biso  1.000000 H
   H489       1.0     0.370477      0.877212      0.992314     Biso  1.000000 H
   H490       1.0     0.357215      0.491178      0.291497     Biso  1.000000 H
   H491       1.0     0.408338      0.448677      0.213046     Biso  1.000000 H
   H492       1.0     0.403504      0.385200      0.033659     Biso  1.000000 H
   H493       1.0     0.394631      0.358070      0.787049     Biso  1.000000 H
   H494       1.0     0.401358      0.419968      0.799444     Biso  1.000000 H
   H495       1.0     0.362147      0.419441      0.928602     Biso  1.000000 H
   H496       1.0     0.320776      0.441937      0.838311     Biso  1.000000 H
   H497       1.0     0.348339      0.488479      0.799806     Biso  1.000000 H
   H498       1.0     0.315607      0.467971      0.733881     Biso  1.000000 H
   H499       1.0     0.382684      0.383292      0.627655     Biso  1.000000 H
   H500       1.0     0.383877      0.448773      0.636333     Biso  1.000000 H
   H501       1.0     0.337679      0.377506      0.744158     Biso  1.000000 H
   H502       1.0     0.372042      0.469555      0.472053     Biso  1.000000 H
   H503       1.0     0.363235      0.404861      0.440717     Biso  1.000000 H
   H504       1.0     0.333458      0.449147      0.434505     Biso  1.000000 H
   H505       1.0     0.340494      0.340383      0.579400     Biso  1.000000 H
   H506       1.0     0.313682      0.363265      0.499986     Biso  1.000000 H
   H507       1.0     0.422084      0.418700      0.941257     Biso  1.000000 H
   H508       1.0     0.375879      0.533662      0.139311     Biso  1.000000 H
   H509       1.0     0.418958      0.351788      0.949334     Biso  1.000000 H
   H510       1.0     0.370491      0.301349      0.904352     Biso  1.000000 H
   H511       1.0     0.385800      0.429540      0.306277     Biso  1.000000 H
   H512       1.0     0.397921      0.384941      0.227546     Biso  1.000000 H
   H513       1.0     0.326343      0.395048      0.277441     Biso  1.000000 H
   H514       1.0     0.347006      0.357670      0.213388     Biso  1.000000 H
   H515       1.0     0.362701      0.439109      0.112539     Biso  1.000000 H
   H516       1.0     0.258927      0.404391      0.130872     Biso  1.000000 H
   H517       1.0     0.275783      0.426670      0.225715     Biso  1.000000 H
   H518       1.0     0.288210      0.449292      0.117992     Biso  1.000000 H
   H519       1.0     0.324344      0.416116      0.023628     Biso  1.000000 H
   H520       1.0     0.294422      0.374334      0.000149     Biso  1.000000 H
   H521       1.0     0.294050      0.342506      0.162954     Biso  1.000000 H
   H522       1.0     0.315008      0.266696      0.087305     Biso  1.000000 H
   H523       1.0     0.304032      0.274746      0.969157     Biso  1.000000 H
   H524       1.0     0.338543      0.248002      0.994922     Biso  1.000000 H
   H525       1.0     0.338840      0.331998      0.864420     Biso  1.000000 H
   H526       1.0     0.359026      0.331506      0.065480     Biso  1.000000 H
   H527       1.0     0.735120      0.347441      0.252890     Biso  1.000000 H
   H528       1.0     0.368500      0.866140      0.875974     Biso  1.000000 H
   H529       1.0     0.440925      0.955617      0.995846     Biso  1.000000 H
   H530       1.0     0.620040      0.939399      0.790226     Biso  1.000000 H
   H531       1.0     0.595656      0.077482      0.726461     Biso  1.000000 H
   H532       1.0     0.634041      0.071467      0.754100     Biso  1.000000 H
   H533       1.0     0.621058      0.018528      0.889647     Biso  1.000000 H
   H534       1.0     0.636510      0.148856      0.969368     Biso  1.000000 H
   H535       1.0     0.647086      0.084898      0.941701     Biso  1.000000 H
   H536       1.0     0.655130      0.137234      0.862944     Biso  1.000000 H
   H537       1.0     0.615192      0.167292      0.742628     Biso  1.000000 H
   H538       1.0     0.606289      0.201776      0.844987     Biso  1.000000 H
   H539       1.0     0.588405      0.110070      0.902944     Biso  1.000000 H
   H540       1.0     0.517428      0.177570      0.817771     Biso  1.000000 H
   H541       1.0     0.544914      0.163158      0.896111     Biso  1.000000 H
   H542       1.0     0.543719      0.225754      0.860764     Biso  1.000000 H
   H543       1.0     0.591033      0.224212      0.665619     Biso  1.000000 H
   H544       1.0     0.565919      0.254101      0.732679     Biso  1.000000 H
   H545       1.0     0.637979      0.987953      0.731216     Biso  1.000000 H
   H546       1.0     0.561937      0.140208      0.733820     Biso  1.000000 H
   H547       1.0     0.601131      0.979693      0.698794     Biso  1.000000 H
   H548       1.0     0.558146      0.993044      0.822314     Biso  1.000000 H
   H549       1.0     0.530033      0.015998      0.370015     Biso  1.000000 H
   H550       1.0     0.495598      0.979190      0.342369     Biso  1.000000 H
   H551       1.0     0.551127      0.015269      0.168673     Biso  1.000000 H
   H552       1.0     0.514445      0.001452      0.174522     Biso  1.000000 H
   H553       1.0     0.537013      0.915903      0.273191     Biso  1.000000 H
   H554       1.0     0.495588      0.904395      0.155827     Biso  1.000000 H
   H555       1.0     0.484507      0.949880      0.077786     Biso  1.000000 H
   H556       1.0     0.497336      0.886239      0.044154     Biso  1.000000 H
   H557       1.0     0.525800      0.009280      0.008576     Biso  1.000000 H
   H558       1.0     0.520533      0.960163      0.946737     Biso  1.000000 H
   H559       1.0     0.545312      0.910361      0.098333     Biso  1.000000 H
   H560       1.0     0.581734      0.906640      0.894970     Biso  1.000000 H
   H561       1.0     0.612973      0.930876      0.949997     Biso  1.000000 H
   H562       1.0     0.583262      0.898682      0.011123     Biso  1.000000 H
   H563       1.0     0.559059      0.043990      0.897683     Biso  1.000000 H
   H564       1.0     0.583632      0.996971      0.021687     Biso  1.000000 H
   H565       1.0     0.405453      0.938166      0.059973     Biso  1.000000 H
   H566       1.0     0.535632      0.294284      0.615472     Biso  1.000000 H
   H567       1.0     0.511731      0.268181      0.543930     Biso  1.000000 H
   H568       1.0     0.454203      0.118418      0.812851     Biso  1.000000 H
   H569       1.0     0.495097      0.133112      0.692343     Biso  1.000000 H
   H570       1.0     0.515507      0.056051      0.722026     Biso  1.000000 H
   H571       1.0     0.504578      0.078162      0.828703     Biso  1.000000 H
   H572       1.0     0.509335      0.014166      0.820190     Biso  1.000000 H
   H573       1.0     0.448705      0.031139      0.901756     Biso  1.000000 H
   H574       1.0     0.458502      0.974735      0.842158     Biso  1.000000 H
   H575       1.0     0.464524      0.024326      0.692336     Biso  1.000000 H
   H576       1.0     0.382728      0.972136      0.692439     Biso  1.000000 H
   H577       1.0     0.413687      0.004998      0.646459     Biso  1.000000 H
   H578       1.0     0.420797      0.944220      0.680331     Biso  1.000000 H
   H579       1.0     0.372351      0.949701      0.835523     Biso  1.000000 H
   H580       1.0     0.383872      0.988823      0.920143     Biso  1.000000 H
   H581       1.0     0.399961      0.028089      0.792154     Biso  1.000000 H
   H582       1.0     0.436390      0.891800      0.036980     Biso  1.000000 H
   H583       1.0     0.428615      0.098360      0.731264     Biso  1.000000 H
   H584       1.0     0.552856      0.276483      0.522446     Biso  1.000000 H
   H585       1.0     0.470697      0.213429      0.659470     Biso  1.000000 H
   H586       1.0     0.435195      0.190215      0.697366     Biso  1.000000 H
   H587       1.0     0.573980      0.146433      0.584675     Biso  1.000000 H
   H588       1.0     0.583023      0.197166      0.511671     Biso  1.000000 H
   H589       1.0     0.525573      0.190864      0.636654     Biso  1.000000 H
   H590       1.0     0.577190      0.147841      0.368478     Biso  1.000000 H
   H591       1.0     0.582265      0.092547      0.441277     Biso  1.000000 H
   H592       1.0     0.553052      0.097551      0.353896     Biso  1.000000 H
   H593       1.0     0.523109      0.105925      0.578313     Biso  1.000000 H
   H594       1.0     0.515746      0.082299      0.472053     Biso  1.000000 H
   H595       1.0     0.533777      0.180757      0.433221     Biso  1.000000 H
   H596       1.0     0.442518      0.150173      0.419616     Biso  1.000000 H
   H597       1.0     0.477394      0.163364      0.349796     Biso  1.000000 H
   H598       1.0     0.467381      0.100158      0.391170     Biso  1.000000 H
   H599       1.0     0.465765      0.081303      0.571918     Biso  1.000000 H
   H600       1.0     0.436924      0.125345      0.571849     Biso  1.000000 H
   H601       1.0     0.485188      0.179899      0.523765     Biso  1.000000 H
   H602       1.0     0.464716      0.205406      0.771415     Biso  1.000000 H
   H603       1.0     0.696880      0.757140      0.468992     Biso  1.000000 H
   H604       1.0     0.764907      0.552414      0.947933     Biso  1.000000 H
   H605       1.0     0.731545      0.789308      0.581286     Biso  1.000000 H
   H606       1.0     0.058917      0.147127      0.193955     Biso  1.000000 H
   H607       1.0     0.036237      0.113711      0.114090     Biso  1.000000 H
   H608       1.0     0.973242      0.125616      0.286146     Biso  1.000000 H
   H609       1.0     0.010974      0.105269      0.308347     Biso  1.000000 H
   H610       1.0     0.989113      0.173170      0.151460     Biso  1.000000 H
   H611       1.0     0.954032      0.040177      0.298576     Biso  1.000000 H
   H612       1.0     0.039754      0.180341      0.100875     Biso  1.000000 H
   H613       1.0     0.973230      0.984117      0.264000     Biso  1.000000 H
   H614       1.0     0.973490      0.098952      0.097274     Biso  1.000000 H
   H615       1.0     0.944380      0.063547      0.146663     Biso  1.000000 H
   H616       1.0     0.010881      0.041127      0.190204     Biso  1.000000 H
   H617       1.0     0.945323      0.048811      0.932702     Biso  1.000000 H
   H618       1.0     0.938813      0.982617      0.960116     Biso  1.000000 H
   H619       1.0     0.923305      0.029162      0.020184     Biso  1.000000 H
   H620       1.0     0.991343      0.022120      0.340264     Biso  1.000000 H
   H621       1.0     0.962677      0.210231      0.316533     Biso  1.000000 H
   H622       1.0     0.025609      0.236605      0.236614     Biso  1.000000 H
   H623       1.0     0.024364      0.194990      0.330541     Biso  1.000000 H
   H624       1.0     0.077664      0.208471      0.545925     Biso  1.000000 H
   H625       1.0     0.050758      0.221170      0.636121     Biso  1.000000 H
   H626       1.0     0.039129      0.186868      0.538607     Biso  1.000000 H
   H627       1.0     0.002007      0.321154      0.539297     Biso  1.000000 H
   H628       1.0     0.002461      0.267872      0.604258     Biso  1.000000 H
   H629       1.0     0.045093      0.265723      0.443607     Biso  1.000000 H
   H630       1.0     0.955143      0.224654      0.573182     Biso  1.000000 H
   H631       1.0     0.942300      0.283964      0.520506     Biso  1.000000 H
   H632       1.0     0.939576      0.222215      0.465493     Biso  1.000000 H
   H633       1.0     0.007069      0.295734      0.363660     Biso  1.000000 H
   H634       1.0     0.968716      0.305918      0.376629     Biso  1.000000 H
   H635       1.0     0.997642      0.212429      0.468677     Biso  1.000000 H
   H636       1.0     0.947489      0.293765      0.235828     Biso  1.000000 H
   H637       1.0     0.983820      0.286658      0.185578     Biso  1.000000 H
   H638       1.0     0.957567      0.241650      0.165420     Biso  1.000000 H
   H639       1.0     0.023600      0.040402      0.056659     Biso  1.000000 H
   H640       1.0     0.004025      0.060547      0.962399     Biso  1.000000 H
   H641       1.0     0.975462      0.984789      0.079139     Biso  1.000000 H
   H642       1.0     0.983345      0.965277      0.855783     Biso  1.000000 H
   H643       1.0     0.214959      0.049589      0.903915     Biso  1.000000 H
   H644       1.0     0.139803      0.006849      0.782136     Biso  1.000000 H
   H645       1.0     0.179609      0.999711      0.777907     Biso  1.000000 H
   H646       1.0     0.150082      0.092834      0.873303     Biso  1.000000 H
   H647       1.0     0.136497      0.010014      0.622339     Biso  1.000000 H
   H648       1.0     0.161440      0.046398      0.553352     Biso  1.000000 H
   H649       1.0     0.177543      0.994933      0.616360     Biso  1.000000 H
   H650       1.0     0.111940      0.081952      0.739129     Biso  1.000000 H
   H651       1.0     0.123017      0.101948      0.624765     Biso  1.000000 H
   H652       1.0     0.181431      0.083990      0.688968     Biso  1.000000 H
   H653       1.0     0.130828      0.207681      0.603787     Biso  1.000000 H
   H654       1.0     0.163361      0.223521      0.661219     Biso  1.000000 H
   H655       1.0     0.166138      0.172544      0.599879     Biso  1.000000 H
   H656       1.0     0.099071      0.158383      0.813315     Biso  1.000000 H
   H657       1.0     0.094085      0.193677      0.712104     Biso  1.000000 H
   H658       1.0     0.199444      0.101402      0.951910     Biso  1.000000 H
   H659       1.0     0.108227      0.274876      0.490639     Biso  1.000000 H
   H660       1.0     0.204757      0.104036      0.836240     Biso  1.000000 H
   H661       1.0     0.166892      0.038875      0.017649     Biso  1.000000 H
   H662       1.0     0.011723      0.007326      0.819602     Biso  1.000000 H
   H663       1.0     0.020136      0.944815      0.835666     Biso  1.000000 H
   H664       1.0     0.062001      0.016204      0.936303     Biso  1.000000 H
   H665       1.0     0.065892      0.952548      0.907974     Biso  1.000000 H
   H666       1.0     0.012165      0.947243      0.997022     Biso  1.000000 H
   H667       1.0     0.071868      0.889212      0.028035     Biso  1.000000 H
   H668       1.0     0.084908      0.900556      0.139202     Biso  1.000000 H
   H669       1.0     0.044164      0.915388      0.108774     Biso  1.000000 H
   H670       1.0     0.117521      0.944075      0.984217     Biso  1.000000 H
   H671       1.0     0.123677      0.964922      0.090352     Biso  1.000000 H
   H672       1.0     0.065340      0.994674      0.096639     Biso  1.000000 H
   H673       1.0     0.089417      0.074666      0.062569     Biso  1.000000 H
   H674       1.0     0.127973      0.070074      0.104128     Biso  1.000000 H
   H675       1.0     0.116463      0.109669      0.014670     Biso  1.000000 H
   H676       1.0     0.159605      0.986159      0.943047     Biso  1.000000 H
   H677       1.0     0.109540      0.031837      0.917731     Biso  1.000000 H
   H678       1.0     0.070244      0.302414      0.631638     Biso  1.000000 H
   H679       1.0     0.056032      0.348174      0.561860     Biso  1.000000 H
   H680       1.0     0.144712      0.334861      0.552696     Biso  1.000000 H
   H681       1.0     0.064444      0.599666      0.826387     Biso  1.000000 H
   H682       1.0     0.084861      0.643388      0.893610     Biso  1.000000 H
   H683       1.0     0.012678      0.627853      0.914506     Biso  1.000000 H
   H684       1.0     0.094707      0.719998      0.825212     Biso  1.000000 H
   H685       1.0     0.097953      0.686323      0.726194     Biso  1.000000 H
   H686       1.0     0.076403      0.742205      0.721766     Biso  1.000000 H
   H687       1.0     0.058042      0.639716      0.659183     Biso  1.000000 H
   H688       1.0     0.033039      0.691544      0.660378     Biso  1.000000 H
   H689       1.0     0.033254      0.699506      0.821160     Biso  1.000000 H
   H690       1.0     0.961769      0.623857      0.759956     Biso  1.000000 H
   H691       1.0     0.985201      0.671701      0.808997     Biso  1.000000 H
   H692       1.0     0.970698      0.676300      0.698609     Biso  1.000000 H
   H693       1.0     0.026685      0.599903      0.570783     Biso  1.000000 H
   H694       1.0     0.992695      0.633216      0.554049     Biso  1.000000 H
   H695       1.0     0.013727      0.591788      0.750889     Biso  1.000000 H
   H696       1.0     0.062090      0.665781      0.047468     Biso  1.000000 H
   H697       1.0     0.950964      0.587040      0.498907     Biso  1.000000 H
   H698       1.0     0.019391      0.662430      0.070229     Biso  1.000000 H
   H699       1.0     0.042164      0.526918      0.850357     Biso  1.000000 H
   H700       1.0     0.144263      0.418681      0.787322     Biso  1.000000 H
   H701       1.0     0.077107      0.385273      0.954021     Biso  1.000000 H
   H702       1.0     0.067184      0.365036      0.841057     Biso  1.000000 H
   H703       1.0     0.088371      0.444697      0.780736     Biso  1.000000 H
   H704       1.0     0.990945      0.406048      0.925077     Biso  1.000000 H
   H705       1.0     0.012517      0.361506      0.855810     Biso  1.000000 H
   H706       1.0     0.018007      0.366334      0.977349     Biso  1.000000 H
   H707       1.0     0.063800      0.471475      0.992443     Biso  1.000000 H
   H708       1.0     0.025718      0.462857      0.015121     Biso  1.000000 H
   H709       1.0     0.030998      0.438521      0.826496     Biso  1.000000 H
   H710       1.0     0.984192      0.487380      0.876542     Biso  1.000000 H
   H711       1.0     0.982489      0.532616      0.960465     Biso  1.000000 H
   H712       1.0     0.987360      0.551578      0.847364     Biso  1.000000 H
   H713       1.0     0.066215      0.559441      0.995107     Biso  1.000000 H
   H714       1.0     0.027585      0.567361      0.043963     Biso  1.000000 H
   H715       1.0     0.035491      0.701987      0.986922     Biso  1.000000 H
   H716       1.0     0.158721      0.151738      0.773704     Biso  1.000000 H
   H717       1.0     0.936253      0.536101      0.572970     Biso  1.000000 H
   H718       1.0     0.004191      0.538120      0.468657     Biso  1.000000 H
   H719       1.0     0.027602      0.399658      0.310608     Biso  1.000000 H
   H720       1.0     0.074496      0.267513      0.154665     Biso  1.000000 H
   H721       1.0     0.040758      0.297101      0.113626     Biso  1.000000 H
   H722       1.0     0.079232      0.313937      0.072217     Biso  1.000000 H
   H723       1.0     0.109544      0.390536      0.253245     Biso  1.000000 H
   H724       1.0     0.117191      0.335895      0.186890     Biso  1.000000 H
   H725       1.0     0.054160      0.328983      0.269016     Biso  1.000000 H
   H726       1.0     0.157289      0.318685      0.401577     Biso  1.000000 H
   H727       1.0     0.157298      0.294735      0.291182     Biso  1.000000 H
   H728       1.0     0.157776      0.360235      0.314551     Biso  1.000000 H
   H729       1.0     0.072381      0.356361      0.408089     Biso  1.000000 H
   H730       1.0     0.109832      0.386208      0.432059     Biso  1.000000 H
   H731       1.0     0.099893      0.287944      0.330479     Biso  1.000000 H
   H732       1.0     0.115878      0.377246      0.580603     Biso  1.000000 H
   H733       1.0     0.122898      0.316700      0.639647     Biso  1.000000 H
   H734       1.0     0.034999      0.392624      0.127251     Biso  1.000000 H
   H735       1.0     0.937309      0.598460      0.607135     Biso  1.000000 H
   H736       1.0     0.066009      0.425101      0.147811     Biso  1.000000 H
   H737       1.0     0.018437      0.494128      0.189452     Biso  1.000000 H
   H738       1.0     0.979529      0.489677      0.518026     Biso  1.000000 H
   H739       1.0     0.982517      0.539609      0.660945     Biso  1.000000 H
   H740       1.0     0.048776      0.435815      0.645674     Biso  1.000000 H
   H741       1.0     0.017465      0.468590      0.698575     Biso  1.000000 H
   H742       1.0     0.010876      0.417185      0.617474     Biso  1.000000 H
   H743       1.0     0.028258      0.434418      0.454834     Biso  1.000000 H
   H744       1.0     0.064477      0.438956      0.502105     Biso  1.000000 H
   H745       1.0     0.044997      0.516330      0.590736     Biso  1.000000 H
   H746       1.0     0.084480      0.562319      0.373883     Biso  1.000000 H
   H747       1.0     0.072535      0.555242      0.478011     Biso  1.000000 H
   H748       1.0     0.101505      0.514597      0.434068     Biso  1.000000 H
   H749       1.0     0.083062      0.444689      0.334805     Biso  1.000000 H
   H750       1.0     0.069210      0.487471      0.259750     Biso  1.000000 H
   H751       1.0     0.032196      0.520926      0.376219     Biso  1.000000 H
   H752       1.0     0.995770      0.471758      0.283406     Biso  1.000000 H
   H753       1.0     0.991857      0.437082      0.192745     Biso  1.000000 H
   H754       1.0     0.119463      0.362689      0.769707     Biso  1.000000 H
   H755       1.0     0.067483      0.239830      0.853002     Biso  1.000000 H
   H756       1.0     0.081342      0.275196      0.769673     Biso  1.000000 H
   H757       1.0     0.042403      0.969552      0.344090     Biso  1.000000 H
   H758       1.0     0.096596      0.038826      0.503833     Biso  1.000000 H
   H759       1.0     0.091029      0.980270      0.475264     Biso  1.000000 H
   H760       1.0     0.055992      0.058841      0.371737     Biso  1.000000 H
   H761       1.0     0.073157      0.984980      0.660447     Biso  1.000000 H
   H762       1.0     0.032975      0.959842      0.645216     Biso  1.000000 H
   H763       1.0     0.082919      0.958109      0.330377     Biso  1.000000 H
   H764       1.0     0.064814      0.935949      0.583117     Biso  1.000000 H
   H765       1.0     0.060120      0.080811      0.613415     Biso  1.000000 H
   H766       1.0     0.033170      0.996090      0.483717     Biso  1.000000 H
   H767       1.0     0.027661      0.099662      0.737619     Biso  1.000000 H
   H768       1.0     0.012106      0.143513      0.661793     Biso  1.000000 H
   H769       1.0     0.988200      0.102921      0.736498     Biso  1.000000 H
   H770       1.0     0.989199      0.052799      0.486423     Biso  1.000000 H
   H771       1.0     0.036909      0.087211      0.508213     Biso  1.000000 H
   H772       1.0     0.062532      0.990605      0.239695     Biso  1.000000 H
   H773       1.0     0.128481      0.089769      0.431007     Biso  1.000000 H
   H774       1.0     0.095377      0.059215      0.244615     Biso  1.000000 H
   H775       1.0     0.193084      0.161570      0.211236     Biso  1.000000 H
   H776       1.0     0.226232      0.167246      0.147101     Biso  1.000000 H
   H777       1.0     0.206543      0.036417      0.295494     Biso  1.000000 H
   H778       1.0     0.180198      0.048666      0.205571     Biso  1.000000 H
   H779       1.0     0.237323      0.099452      0.263761     Biso  1.000000 H
   H780       1.0     0.224033      0.099280      0.416131     Biso  1.000000 H
   H781       1.0     0.210116      0.150555      0.359670     Biso  1.000000 H
   H782       1.0     0.187314      0.130773      0.454888     Biso  1.000000 H
   H783       1.0     0.145030      0.113776      0.242005     Biso  1.000000 H
   H784       1.0     0.154278      0.159284      0.337039     Biso  1.000000 H
   H785       1.0     0.170474      0.055757      0.380483     Biso  1.000000 H
   H786       1.0     0.106109      0.174418      0.432565     Biso  1.000000 H
   H787       1.0     0.097279      0.171051      0.313239     Biso  1.000000 H
   H788       1.0     0.071845      0.142883      0.378912     Biso  1.000000 H
   H789       1.0     0.120860      0.021979      0.325047     Biso  1.000000 H
   H790       1.0     0.984945      0.117097      0.530742     Biso  1.000000 H
   H791       1.0     0.004721      0.025662      0.656620     Biso  1.000000 H
   H792       1.0     0.904485      0.094166      0.564333     Biso  1.000000 H
   H793       1.0     0.934466      0.132826      0.497602     Biso  1.000000 H
   H794       1.0     0.902103      0.122162      0.951650     Biso  1.000000 H
   H795       1.0     0.872303      0.171727      0.924858     Biso  1.000000 H
   H796       1.0     0.912291      0.113437      0.787541     Biso  1.000000 H
   H797       1.0     0.921524      0.225589      0.038551     Biso  1.000000 H
   H798       1.0     0.928651      0.275986      0.961859     Biso  1.000000 H
   H799       1.0     0.891665      0.254574      0.965624     Biso  1.000000 H
   H800       1.0     0.954764      0.144089      0.864071     Biso  1.000000 H
   H801       1.0     0.954914      0.163524      0.981005     Biso  1.000000 H
   H802       1.0     0.920211      0.214631      0.832462     Biso  1.000000 H
   H803       1.0     0.013044      0.158944      0.973912     Biso  1.000000 H
   H804       1.0     0.021262      0.166612      0.851649     Biso  1.000000 H
   H805       1.0     0.029590      0.207784      0.946956     Biso  1.000000 H
   H806       1.0     0.983708      0.214933      0.759799     Biso  1.000000 H
   H807       1.0     0.998541      0.274250      0.804760     Biso  1.000000 H
   H808       1.0     0.981834      0.242242      0.957691     Biso  1.000000 H
   H809       1.0     0.873220      0.142192      0.663207     Biso  1.000000 H
   H810       1.0     0.196353      0.136643      0.100131     Biso  1.000000 H
   H811       1.0     0.900098      0.187933      0.715712     Biso  1.000000 H
   H812       1.0     0.865134      0.062597      0.660378     Biso  1.000000 H
   H813       1.0     0.922217      0.073830      0.465657     Biso  1.000000 H
   H814       1.0     0.959818      0.985831      0.639134     Biso  1.000000 H
   H815       1.0     0.948109      0.989537      0.528289     Biso  1.000000 H
   H816       1.0     0.952499      0.079940      0.649541     Biso  1.000000 H
   H817       1.0     0.916854      0.914350      0.668332     Biso  1.000000 H
   H818       1.0     0.877617      0.924605      0.635957     Biso  1.000000 H
   H819       1.0     0.908187      0.921090      0.547565     Biso  1.000000 H
   H820       1.0     0.919589      0.036887      0.736881     Biso  1.000000 H
   H821       1.0     0.899646      0.982915      0.766140     Biso  1.000000 H
   H822       1.0     0.893788      0.005788      0.563342     Biso  1.000000 H
   H823       1.0     0.848100      0.973510      0.778693     Biso  1.000000 H
   H824       1.0     0.822092      0.020650      0.748962     Biso  1.000000 H
   H825       1.0     0.837231      0.981079      0.668557     Biso  1.000000 H
   H826       1.0     0.876473      0.058257      0.870815     Biso  1.000000 H
   H827       1.0     0.846010      0.094326      0.831648     Biso  1.000000 H
   H828       1.0     0.861353      0.187330      0.748682     Biso  1.000000 H
   H829       1.0     0.284934      0.066406      0.174132     Biso  1.000000 H
   H830       1.0     0.224136      0.052509      0.070489     Biso  1.000000 H
   H831       1.0     0.242256      0.018162      0.159318     Biso  1.000000 H
   H832       1.0     0.248197      0.311628      0.642127     Biso  1.000000 H
   H833       1.0     0.210153      0.268822      0.749433     Biso  1.000000 H
   H834       1.0     0.249556      0.217139      0.581710     Biso  1.000000 H
   H835       1.0     0.268687      0.169715      0.652561     Biso  1.000000 H
   H836       1.0     0.232566      0.195948      0.676552     Biso  1.000000 H
   H837       1.0     0.315699      0.284696      0.734927     Biso  1.000000 H
   H838       1.0     0.304259      0.284070      0.623207     Biso  1.000000 H
   H839       1.0     0.272559      0.236376      0.788122     Biso  1.000000 H
   H840       1.0     0.355191      0.257353      0.565180     Biso  1.000000 H
   H841       1.0     0.368799      0.267761      0.676600     Biso  1.000000 H
   H842       1.0     0.380105      0.211914      0.621287     Biso  1.000000 H
   H843       1.0     0.314555      0.184036      0.797941     Biso  1.000000 H
   H844       1.0     0.345377      0.221108      0.812004     Biso  1.000000 H
   H845       1.0     0.317758      0.188326      0.623842     Biso  1.000000 H
   H846       1.0     0.391694      0.104597      0.861803     Biso  1.000000 H
   H847       1.0     0.269325      0.334361      0.741569     Biso  1.000000 H
   H848       1.0     0.391718      0.168452      0.870590     Biso  1.000000 H
   H849       1.0     0.200429      0.345757      0.660194     Biso  1.000000 H
   H850       1.0     0.178198      0.351303      0.756464     Biso  1.000000 H
   H851       1.0     0.149226      0.185899      0.902145     Biso  1.000000 H
   H852       1.0     0.111423      0.196024      0.961531     Biso  1.000000 H
   H853       1.0     0.130959      0.253200      0.782737     Biso  1.000000 H
   H854       1.0     0.158569      0.226257      0.106396     Biso  1.000000 H
   H855       1.0     0.147768      0.291983      0.095293     Biso  1.000000 H
   H856       1.0     0.118611      0.248941      0.092696     Biso  1.000000 H
   H857       1.0     0.184218      0.239013      0.869818     Biso  1.000000 H
   H858       1.0     0.200665      0.228868      0.975634     Biso  1.000000 H
   H859       1.0     0.136663      0.285250      0.946512     Biso  1.000000 H
   H860       1.0     0.218380      0.369070      0.027536     Biso  1.000000 H
   H861       1.0     0.190781      0.322177      0.070742     Biso  1.000000 H
   H862       1.0     0.230928      0.305998      0.054916     Biso  1.000000 H
   H863       1.0     0.242284      0.280841      0.890625     Biso  1.000000 H
   H864       1.0     0.239452      0.346555      0.881072     Biso  1.000000 H
   H865       1.0     0.182248      0.336891      0.912162     Biso  1.000000 H
   H866       1.0     0.213415      0.386895      0.747165     Biso  1.000000 H
   H867       1.0     0.088303      0.294651      0.883368     Biso  1.000000 H
   H868       1.0     0.357336      0.130879      0.919924     Biso  1.000000 H
   H869       1.0     0.354278      0.063437      0.760298     Biso  1.000000 H
   H870       1.0     0.256583      0.863479      0.857060     Biso  1.000000 H
   H871       1.0     0.284808      0.853628      0.930447     Biso  1.000000 H
   H872       1.0     0.252209      0.887953      0.964995     Biso  1.000000 H
   H873       1.0     0.321672      0.974777      0.937834     Biso  1.000000 H
   H874       1.0     0.319098      0.914586      0.996427     Biso  1.000000 H
   H875       1.0     0.265036      0.960552      0.887645     Biso  1.000000 H
   H876       1.0     0.328083      0.983403      0.139400     Biso  1.000000 H
   H877       1.0     0.292960      0.980315      0.201526     Biso  1.000000 H
   H878       1.0     0.307617      0.925361      0.160418     Biso  1.000000 H
   H879       1.0     0.269253      0.041875      0.972621     Biso  1.000000 H
   H880       1.0     0.306835      0.053082      0.015408     Biso  1.000000 H
   H881       1.0     0.265881      0.961510      0.054130     Biso  1.000000 H
   H882       1.0     0.275402      0.150792      0.147702     Biso  1.000000 H
   H883       1.0     0.298538      0.138921      0.056488     Biso  1.000000 H
   H884       1.0     0.261669      0.140116      0.029244     Biso  1.000000 H
   H885       1.0     0.265221      0.897354      0.723577     Biso  1.000000 H
   H886       1.0     0.320018      0.092563      0.801733     Biso  1.000000 H
   H887       1.0     0.320039      0.896521      0.797688     Biso  1.000000 H
   H888       1.0     0.291149      0.905212      0.568781     Biso  1.000000 H
   H889       1.0     0.377667      0.147398      0.721712     Biso  1.000000 H
   H890       1.0     0.336102      0.090517      0.509511     Biso  1.000000 H
   H891       1.0     0.355177      0.136246      0.560431     Biso  1.000000 H
   H892       1.0     0.366782      0.074360      0.582775     Biso  1.000000 H
   H893       1.0     0.327730      0.006536      0.641956     Biso  1.000000 H
   H894       1.0     0.303180      0.030452      0.564395     Biso  1.000000 H
   H895       1.0     0.305909      0.115414      0.640043     Biso  1.000000 H
   H896       1.0     0.258925      0.088891      0.637413     Biso  1.000000 H
   H897       1.0     0.229005      0.054093      0.687738     Biso  1.000000 H
   H898       1.0     0.255410      0.080646      0.765696     Biso  1.000000 H
   H899       1.0     0.257944      0.965178      0.606370     Biso  1.000000 H
   H900       1.0     0.241638      0.967796      0.719860     Biso  1.000000 H
   H901       1.0     0.286774      0.021181      0.764158     Biso  1.000000 H
   H902       1.0     0.323951      0.925437      0.618396     Biso  1.000000 H
   H903       1.0     0.313605      0.859170      0.640248     Biso  1.000000 H
   H904       1.0     0.319471      0.963376      0.795761     Biso  1.000000 H
   H905       1.0     0.135002      0.381380      0.885329     Biso  1.000000 H
   H906       1.0     0.959383      0.260028      0.804993     Biso  1.000000 H
   H907       1.0     0.101879      0.455571      0.882275     Biso  1.000000 H
   H908       1.0     0.290059      0.778949      0.762935     Biso  1.000000 H
   H909       1.0     0.319304      0.744998      0.807938     Biso  1.000000 H
   H910       1.0     0.326144      0.780296      0.708667     Biso  1.000000 H
   H911       1.0     0.289621      0.691704      0.542392     Biso  1.000000 H
   H912       1.0     0.311922      0.747498      0.556058     Biso  1.000000 H
   H913       1.0     0.285423      0.687556      0.722860     Biso  1.000000 H
   H914       1.0     0.333954      0.618418      0.578471     Biso  1.000000 H
   H915       1.0     0.242352      0.806327      0.484414     Biso  1.000000 H
   H916       1.0     0.260956      0.756033      0.428014     Biso  1.000000 H
   H917       1.0     0.235919      0.715273      0.695773     Biso  1.000000 H
   H918       1.0     0.226256      0.703628      0.585126     Biso  1.000000 H
   H919       1.0     0.269089      0.790617      0.628734     Biso  1.000000 H
   H920       1.0     0.176665      0.721743      0.743092     Biso  1.000000 H
   H921       1.0     0.154591      0.758926      0.689173     Biso  1.000000 H
   H922       1.0     0.280793      0.811010      0.472340     Biso  1.000000 H
   H923       1.0     0.346018      0.675281      0.745812     Biso  1.000000 H
   H924       1.0     0.352486      0.703674      0.637740     Biso  1.000000 H
   H925       1.0     0.287691      0.609472      0.679935     Biso  1.000000 H
   H926       1.0     0.485831      0.566040      0.647710     Biso  1.000000 H
   H927       1.0     0.425320      0.640979      0.883928     Biso  1.000000 H
   H928       1.0     0.436547      0.675327      0.779827     Biso  1.000000 H
   H929       1.0     0.396491      0.654678      0.795338     Biso  1.000000 H
   H930       1.0     0.432703      0.567601      0.620535     Biso  1.000000 H
   H931       1.0     0.442558      0.629922      0.635602     Biso  1.000000 H
   H932       1.0     0.419415      0.561059      0.779738     Biso  1.000000 H
   H933       1.0     0.387569      0.663972      0.490796     Biso  1.000000 H
   H934       1.0     0.420025      0.623781      0.497444     Biso  1.000000 H
   H935       1.0     0.384443      0.595784      0.492333     Biso  1.000000 H
   H936       1.0     0.371041      0.590937      0.739840     Biso  1.000000 H
   H937       1.0     0.366415      0.552166      0.638499     Biso  1.000000 H
   H938       1.0     0.393419      0.659723      0.649691     Biso  1.000000 H
   H939       1.0     0.310223      0.554647      0.691264     Biso  1.000000 H
   H940       1.0     0.309428      0.598533      0.776109     Biso  1.000000 H
   H941       1.0     0.173198      0.710338      0.628434     Biso  1.000000 H
   H942       1.0     0.231560      0.837075      0.686501     Biso  1.000000 H
   H943       1.0     0.222180      0.802315      0.778460     Biso  1.000000 H
   H944       1.0     0.199565      0.787193      0.578197     Biso  1.000000 H
   H945       1.0     0.250759      0.887659      0.396910     Biso  1.000000 H
   H946       1.0     0.266195      0.919350      0.303263     Biso  1.000000 H
   H947       1.0     0.223593      0.839399      0.263495     Biso  1.000000 H
   H948       1.0     0.242242      0.874438      0.177330     Biso  1.000000 H
   H949       1.0     0.218724      0.949953      0.254626     Biso  1.000000 H
   H950       1.0     0.162862      0.898132      0.055770     Biso  1.000000 H
   H951       1.0     0.175633      0.938250      0.144914     Biso  1.000000 H
   H952       1.0     0.201500      0.924464      0.054978     Biso  1.000000 H
   H953       1.0     0.205731      0.778567      0.135389     Biso  1.000000 H
   H954       1.0     0.217524      0.819227      0.041851     Biso  1.000000 H
   H955       1.0     0.173460      0.850735      0.204826     Biso  1.000000 H
   H956       1.0     0.185477      0.779647      0.913816     Biso  1.000000 H
   H957       1.0     0.197672      0.734636      0.986738     Biso  1.000000 H
   H958       1.0     0.157879      0.735956      0.946594     Biso  1.000000 H
   H959       1.0     0.158316      0.777117      0.182148     Biso  1.000000 H
   H960       1.0     0.249259      0.951117      0.387309     Biso  1.000000 H
   H961       1.0     0.469721      0.570674      0.854423     Biso  1.000000 H
   H962       1.0     0.203655      0.874869      0.471991     Biso  1.000000 H
   H963       1.0     0.190480      0.955285      0.379677     Biso  1.000000 H
   H964       1.0     0.198292      0.855510      0.885923     Biso  1.000000 H
   H965       1.0     0.205209      0.909762      0.828314     Biso  1.000000 H
   H966       1.0     0.168420      0.894041      0.854526     Biso  1.000000 H
   H967       1.0     0.200101      0.904029      0.635520     Biso  1.000000 H
   H968       1.0     0.170336      0.922136      0.700194     Biso  1.000000 H
   H969       1.0     0.166194      0.824441      0.754913     Biso  1.000000 H
   H970       1.0     0.115745      0.921544      0.650853     Biso  1.000000 H
   H971       1.0     0.100812      0.862304      0.604416     Biso  1.000000 H
   H972       1.0     0.123434      0.869128      0.703665     Biso  1.000000 H
   H973       1.0     0.159306      0.936231      0.518155     Biso  1.000000 H
   H974       1.0     0.132337      0.894231      0.464940     Biso  1.000000 H
   H975       1.0     0.153969      0.829815      0.586814     Biso  1.000000 H
   H976       1.0     0.161732      0.822937      0.328047     Biso  1.000000 H
   H977       1.0     0.195038      0.802529      0.388819     Biso  1.000000 H
   H978       1.0     0.161133      0.800338      0.442063     Biso  1.000000 H
   H979       1.0     0.165106      0.916319      0.311415     Biso  1.000000 H
   H980       1.0     0.479598      0.622910      0.779833     Biso  1.000000 H
   H981       1.0     0.451136      0.495109      0.676532     Biso  1.000000 H
   H982       1.0     0.465035      0.492803      0.789878     Biso  1.000000 H
   H983       1.0     0.553198      0.676117      0.399172     Biso  1.000000 H
   H984       1.0     0.596690      0.762189      0.220044     Biso  1.000000 H
   H985       1.0     0.582331      0.776872      0.328265     Biso  1.000000 H
   H986       1.0     0.589870      0.671804      0.263946     Biso  1.000000 H
   H987       1.0     0.537067      0.818254      0.178929     Biso  1.000000 H
   H988       1.0     0.501737      0.794689      0.219811     Biso  1.000000 H
   H989       1.0     0.529446      0.820743      0.289549     Biso  1.000000 H
   H990       1.0     0.560460      0.687670      0.146903     Biso  1.000000 H
   H991       1.0     0.551394      0.744178      0.088282     Biso  1.000000 H
   H992       1.0     0.533971      0.721231      0.287137     Biso  1.000000 H
   H993       1.0     0.474176      0.695216      0.029333     Biso  1.000000 H
   H994       1.0     0.490892      0.754495      0.035647     Biso  1.000000 H
   H995       1.0     0.514277      0.705540      0.982372     Biso  1.000000 H
   H996       1.0     0.527001      0.615265      0.086902     Biso  1.000000 H
   H997       1.0     0.489521      0.621868      0.119618     Biso  1.000000 H
   H998       1.0     0.580398      0.721014      0.447509     Biso  1.000000 H
   H999       1.0     0.497315      0.707922      0.188461     Biso  1.000000 H
   H1000      1.0     0.588003      0.652139      0.431499     Biso  1.000000 H
   H1001      1.0     0.634624      0.673933      0.375625     Biso  1.000000 H
   H1002      1.0     0.752800      0.763254      0.490297     Biso  1.000000 H
   H1003      1.0     0.750940      0.830395      0.495982     Biso  1.000000 H
   H1004      1.0     0.740422      0.776430      0.319950     Biso  1.000000 H
   H1005      1.0     0.722165      0.834598      0.334128     Biso  1.000000 H
   H1006      1.0     0.692364      0.826815      0.454649     Biso  1.000000 H
   H1007      1.0     0.677310      0.795838      0.136168     Biso  1.000000 H
   H1008      1.0     0.701136      0.839716      0.176128     Biso  1.000000 H
   H1009      1.0     0.717214      0.779869      0.145140     Biso  1.000000 H
   H1010      1.0     0.688097      0.707143      0.341528     Biso  1.000000 H
   H1011      1.0     0.700853      0.703391      0.236457     Biso  1.000000 H
   H1012      1.0     0.668980      0.805250      0.297059     Biso  1.000000 H
   H1013      1.0     0.664333      0.624700      0.210710     Biso  1.000000 H
   H1014      1.0     0.627607      0.640368      0.170791     Biso  1.000000 H
   H1015      1.0     0.660032      0.664414      0.122529     Biso  1.000000 H
   H1016      1.0     0.633337      0.739246      0.379964     Biso  1.000000 H
   H1017      1.0     0.640448      0.736987      0.194180     Biso  1.000000 H
   H1018      1.0     0.156573      0.724869      0.128645     Biso  1.000000 H
   H1019      1.0     0.497004      0.614223      0.367398     Biso  1.000000 H
   H1020      1.0     0.469506      0.596456      0.272774     Biso  1.000000 H
   H1021      1.0     0.630644      0.612853      0.883142     Biso  1.000000 H
   H1022      1.0     0.612885      0.592681      0.046689     Biso  1.000000 H
   H1023      1.0     0.548628      0.671269      0.859028     Biso  1.000000 H
   H1024      1.0     0.563696      0.655040      0.968275     Biso  1.000000 H
   H1025      1.0     0.589676      0.683181      0.887884     Biso  1.000000 H
   H1026      1.0     0.589467      0.564830      0.727192     Biso  1.000000 H
   H1027      1.0     0.590752      0.629815      0.727882     Biso  1.000000 H
   H1028      1.0     0.565355      0.574181      0.884072     Biso  1.000000 H
   H1029      1.0     0.559017      0.580181      0.574965     Biso  1.000000 H
   H1030      1.0     0.523699      0.617586      0.581675     Biso  1.000000 H
   H1031      1.0     0.558322      0.646281      0.595581     Biso  1.000000 H
   H1032      1.0     0.528985      0.541010      0.810329     Biso  1.000000 H
   H1033      1.0     0.535342      0.518116      0.706009     Biso  1.000000 H
   H1034      1.0     0.532382      0.630418      0.751449     Biso  1.000000 H
   H1035      1.0     0.491447      0.471498      0.702360     Biso  1.000000 H
   H1036      1.0     0.619675      0.552636      0.848656     Biso  1.000000 H
   H1037      1.0     0.482005      0.658513      0.305409     Biso  1.000000 H
   H1038      1.0     0.670272      0.589033      0.001545     Biso  1.000000 H
   H1039      1.0     0.661429      0.544506      0.078463     Biso  1.000000 H
   H1040      1.0     0.516043      0.525433      0.212828     Biso  1.000000 H
   H1041      1.0     0.531116      0.544483      0.309187     Biso  1.000000 H
   H1042      1.0     0.538131      0.632002      0.260434     Biso  1.000000 H
   H1043      1.0     0.591826      0.537422      0.342211     Biso  1.000000 H
   H1044      1.0     0.611127      0.583903      0.269282     Biso  1.000000 H
   H1045      1.0     0.577555      0.595216      0.336226     Biso  1.000000 H
   H1046      1.0     0.555093      0.479731      0.142659     Biso  1.000000 H
   H1047      1.0     0.576079      0.477071      0.240064     Biso  1.000000 H
   H1048      1.0     0.567934      0.577781      0.151836     Biso  1.000000 H
   H1049      1.0     0.647882      0.451712      0.103533     Biso  1.000000 H
   H1050      1.0     0.626210      0.435933      0.199872     Biso  1.000000 H
   H1051      1.0     0.611497      0.414597      0.099406     Biso  1.000000 H
   H1052      1.0     0.576568      0.530704      0.013863     Biso  1.000000 H
   H1053      1.0     0.604887      0.490903      0.966410     Biso  1.000000 H
   H1054      1.0     0.622312      0.525639      0.148802     Biso  1.000000 H
   H1055      1.0     0.662260      0.527762      0.959659     Biso  1.000000 H
   H1056      1.0     0.156161      0.823537      0.023956     Biso  1.000000 H
   H1057      1.0     0.114357      0.774166      0.958490     Biso  1.000000 H
   H1058      1.0     0.104544      0.715021      0.997247     Biso  1.000000 H
   H1059      1.0     0.951512      0.528456      0.222107     Biso  1.000000 H
   H1060      1.0     0.942922      0.593426      0.221144     Biso  1.000000 H
   H1061      1.0     0.885888      0.479273      0.384050     Biso  1.000000 H
   H1062      1.0     0.925876      0.495597      0.388437     Biso  1.000000 H
   H1063      1.0     0.892784      0.539181      0.228079     Biso  1.000000 H
   H1064      1.0     0.947843      0.410719      0.379096     Biso  1.000000 H
   H1065      1.0     0.909177      0.387410      0.385984     Biso  1.000000 H
   H1066      1.0     0.934906      0.369895      0.292747     Biso  1.000000 H
   H1067      1.0     0.883588      0.463574      0.168905     Biso  1.000000 H
   H1068      1.0     0.866599      0.429433      0.254065     Biso  1.000000 H
   H1069      1.0     0.936113      0.456697      0.249344     Biso  1.000000 H
   H1070      1.0     0.863678      0.339017      0.062050     Biso  1.000000 H
   H1071      1.0     0.842199      0.366880      0.156264     Biso  1.000000 H
   H1072      1.0     0.850830      0.401399      0.064291     Biso  1.000000 H
   H1073      1.0     0.919575      0.344296      0.076878     Biso  1.000000 H
   H1074      1.0     0.957078      0.562700      0.320182     Biso  1.000000 H
   H1075      1.0     0.942524      0.393227      0.134261     Biso  1.000000 H
   H1076      1.0     0.852183      0.553013      0.422329     Biso  1.000000 H
   H1077      1.0     0.902847      0.589147      0.418010     Biso  1.000000 H
   H1078      1.0     0.789629      0.759193      0.631638     Biso  1.000000 H
   H1079      1.0     0.818491      0.788911      0.690423     Biso  1.000000 H
   H1080      1.0     0.816149      0.792086      0.568064     Biso  1.000000 H
   H1081      1.0     0.831845      0.726869      0.478080     Biso  1.000000 H
   H1082      1.0     0.804757      0.682445      0.534603     Biso  1.000000 H
   H1083      1.0     0.832048      0.704494      0.687355     Biso  1.000000 H
   H1084      1.0     0.837011      0.587113      0.576052     Biso  1.000000 H
   H1085      1.0     0.879624      0.600872      0.561381     Biso  1.000000 H
   H1086      1.0     0.859778      0.633201      0.637925     Biso  1.000000 H
   H1087      1.0     0.836457      0.659548      0.358214     Biso  1.000000 H
   H1088      1.0     0.815244      0.616502      0.426504     Biso  1.000000 H
   H1089      1.0     0.876213      0.666021      0.485692     Biso  1.000000 H
   H1090      1.0     0.841677      0.522155      0.265996     Biso  1.000000 H
   H1091      1.0     0.812560      0.563826      0.294769     Biso  1.000000 H
   H1092      1.0     0.842653      0.584830      0.223405     Biso  1.000000 H
   H1093      1.0     0.891883      0.621659      0.305668     Biso  1.000000 H
   H1094      1.0     0.869682      0.795609      0.738104     Biso  1.000000 H
   H1095      1.0     0.894864      0.352677      0.207286     Biso  1.000000 H
   H1096      1.0     0.963005      0.454334      0.017587     Biso  1.000000 H
   H1097      1.0     0.858304      0.608536      0.868998     Biso  1.000000 H
   H1098      1.0     0.880544      0.590113      0.960868     Biso  1.000000 H
   H1099      1.0     0.892522      0.510586      0.885466     Biso  1.000000 H
   H1100      1.0     0.851593      0.520639      0.090154     Biso  1.000000 H
   H1101      1.0     0.814853      0.495807      0.049648     Biso  1.000000 H
   H1102      1.0     0.848434      0.476261      0.994610     Biso  1.000000 H
   H1103      1.0     0.823859      0.642223      0.981231     Biso  1.000000 H
   H1104      1.0     0.838125      0.606277      0.076215     Biso  1.000000 H
   H1105      1.0     0.817948      0.552403      0.908343     Biso  1.000000 H
   H1106      1.0     0.795568      0.645277      0.189882     Biso  1.000000 H
   H1107      1.0     0.780165      0.676575      0.085699     Biso  1.000000 H
   H1108      1.0     0.756972      0.636178      0.157514     Biso  1.000000 H
   H1109      1.0     0.742498      0.579685      0.032374     Biso  1.000000 H
   H1110      1.0     0.307200      0.372815      0.618539     Biso  1.000000 H
   H1111      1.0     0.793598      0.565204      0.108993     Biso  1.000000 H
   H1112      1.0     0.924697      0.546303      0.761296     Biso  1.000000 H
   H1113      1.0     0.931478      0.481216      0.071281     Biso  1.000000 H
   H1114      1.0     0.920450      0.588464      0.855414     Biso  1.000000 H
   H1115      1.0     0.900056      0.481834      0.705702     Biso  1.000000 H
   H1116      1.0     0.935416      0.487884      0.954144     Biso  1.000000 H
   H1117      1.0     0.908638      0.348979      0.921954     Biso  1.000000 H
   H1118      1.0     0.946387      0.370067      0.922514     Biso  1.000000 H
   H1119      1.0     0.894131      0.431456      0.998279     Biso  1.000000 H
   H1120      1.0     0.956774      0.381357      0.738842     Biso  1.000000 H
   H1121      1.0     0.927837      0.336841      0.754408     Biso  1.000000 H
   H1122      1.0     0.925085      0.392502      0.674085     Biso  1.000000 H
   H1123      1.0     0.871222      0.424765      0.863811     Biso  1.000000 H
   H1124      1.0     0.875825      0.383139      0.770821     Biso  1.000000 H
   H1125      1.0     0.931536      0.446200      0.821139     Biso  1.000000 H
   H1126      1.0     0.838314      0.429429      0.660959     Biso  1.000000 H
   H1127      1.0     0.851170      0.482399      0.596462     Biso  1.000000 H
   H1128      1.0     0.875499      0.423872      0.597863     Biso  1.000000 H
   H1129      1.0     0.843703      0.496116      0.819246     Biso  1.000000 H
   H1130      1.0     0.851673      0.538449      0.738398     Biso  1.000000 H
   H1131      1.0     0.897770      0.597735      0.754155     Biso  1.000000 H
   H1132      1.0     0.762288      0.618246      0.947653     Biso  1.000000 H
   H1133      1.0     0.872268      0.779540      0.571966     Biso  1.000000 H
   H1134      1.0     0.914505      0.821395      0.643296     Biso  1.000000 H
   H1135      1.0     0.983771      0.647136      0.363831     Biso  1.000000 H
   H1136      1.0     0.979096      0.654960      0.256156     Biso  1.000000 H
   H1137      1.0     0.031901      0.692189      0.247663     Biso  1.000000 H
   H1138      1.0     0.974709      0.728731      0.165899     Biso  1.000000 H
   H1139      1.0     0.969882      0.787445      0.223105     Biso  1.000000 H
   H1140      1.0     0.006030      0.761495      0.205721     Biso  1.000000 H
   H1141      1.0     0.947435      0.705865      0.419411     Biso  1.000000 H
   H1142      1.0     0.933897      0.706059      0.302286     Biso  1.000000 H
   H1143      1.0     0.995353      0.740712      0.367548     Biso  1.000000 H
   H1144      1.0     0.886103      0.755216      0.420504     Biso  1.000000 H
   H1145      1.0     0.885797      0.811239      0.356704     Biso  1.000000 H
   H1146      1.0     0.891101      0.754296      0.302887     Biso  1.000000 H
   H1147      1.0     0.947377      0.776216      0.513393     Biso  1.000000 H
   H1148      1.0     0.922144      0.826037      0.484024     Biso  1.000000 H
   H1149      1.0     0.935226      0.803903      0.312734     Biso  1.000000 H
   H1150      1.0     0.037807      0.590445      0.316048     Biso  1.000000 H
   H1151      1.0     0.968826      0.882262      0.323564     Biso  1.000000 H
   H1152      1.0     0.057211      0.617342      0.229008     Biso  1.000000 H
   H1153      1.0     0.090971      0.680945      0.326352     Biso  1.000000 H
   H1154      1.0     0.075195      0.763941      0.006531     Biso  1.000000 H
   H1155      1.0     0.098767      0.710281      0.184888     Biso  1.000000 H
   H1156      1.0     0.067247      0.755624      0.165420     Biso  1.000000 H
   H1157      1.0     0.109301      0.811220      0.108918     Biso  1.000000 H
   H1158      1.0     0.076012      0.848327      0.264841     Biso  1.000000 H
   H1159      1.0     0.099506      0.843724      0.360743     Biso  1.000000 H
   H1160      1.0     0.116672      0.850728      0.251120     Biso  1.000000 H
   H1161      1.0     0.052850      0.761987      0.307595     Biso  1.000000 H
   H1162      1.0     0.071770      0.777434      0.403060     Biso  1.000000 H
   H1163      1.0     0.119332      0.760975      0.312659     Biso  1.000000 H
   H1164      1.0     0.104444      0.662552      0.485090     Biso  1.000000 H
   H1165      1.0     0.118908      0.721430      0.457744     Biso  1.000000 H
   H1166      1.0     0.082861      0.714945      0.521606     Biso  1.000000 H
   H1167      1.0     0.030303      0.697063      0.443580     Biso  1.000000 H
   H1168      1.0     0.046137      0.639338      0.425007     Biso  1.000000 H
   H1169      1.0     0.018771      0.600342      0.215766     Biso  1.000000 H
   H1170      1.0     0.885678      0.716109      0.601573     Biso  1.000000 H
   H1171      1.0     0.936888      0.896235      0.383374     Biso  1.000000 H
   H1172      1.0     0.960801      0.885277      0.580069     Biso  1.000000 H
   H1173      1.0     0.005619      0.762972      0.916447     Biso  1.000000 H
   H1174      1.0     0.938918      0.695414      0.022821     Biso  1.000000 H
   H1175      1.0     0.944550      0.672655      0.909641     Biso  1.000000 H
   H1176      1.0     0.977680      0.699330      0.970667     Biso  1.000000 H
   H1177      1.0     0.902775      0.804518      0.890023     Biso  1.000000 H
   H1178      1.0     0.898626      0.771155      0.998279     Biso  1.000000 H
   H1179      1.0     0.946794      0.750804      0.849968     Biso  1.000000 H
   H1180      1.0     0.844595      0.740640      0.977021     Biso  1.000000 H
   H1181      1.0     0.844094      0.768949      0.857566     Biso  1.000000 H
   H1182      1.0     0.837159      0.704708      0.878079     Biso  1.000000 H
   H1183      1.0     0.873873      0.689109      0.755276     Biso  1.000000 H
   H1184      1.0     0.913164      0.699464      0.759198     Biso  1.000000 H
   H1185      1.0     0.892592      0.690143      0.911821     Biso  1.000000 H
   H1186      1.0     0.922385      0.816426      0.757360     Biso  1.000000 H
   H1187      1.0     0.933876      0.766666      0.685319     Biso  1.000000 H
   H1188      1.0     0.964341      0.782441      0.036221     Biso  1.000000 H
   H1189      1.0     0.970581      0.928453      0.419076     Biso  1.000000 H
   H1190      1.0     0.948467      0.832491      0.966218     Biso  1.000000 H
   H1191      1.0     0.020512      0.792743      0.050065     Biso  1.000000 H
   H1192      1.0     0.998678      0.886369      0.526601     Biso  1.000000 H
   H1193      1.0     0.990194      0.828735      0.421352     Biso  1.000000 H
   H1194      1.0     0.033663      0.769021      0.606513     Biso  1.000000 H
   H1195      1.0     0.009026      0.766617      0.512525     Biso  1.000000 H
   H1196      1.0     0.036530      0.813964      0.518060     Biso  1.000000 H
   H1197      1.0     0.999680      0.890434      0.701978     Biso  1.000000 H
   H1198      1.0     0.034187      0.865449      0.649179     Biso  1.000000 H
   H1199      1.0     0.980516      0.797819      0.647423     Biso  1.000000 H
   H1200      1.0     0.068899      0.831201      0.746898     Biso  1.000000 H
   H1201      1.0     0.057967      0.867850      0.840798     Biso  1.000000 H
   H1202      1.0     0.060726      0.804556      0.854696     Biso  1.000000 H
   H1203      1.0     0.970382      0.827495      0.804726     Biso  1.000000 H
   H1204      1.0     0.994326      0.874395      0.860224     Biso  1.000000 H
   H1205      1.0     0.017064      0.783044      0.755214     Biso  1.000000 H
   H1206      1.0     0.008915      0.856040      0.037225     Biso  1.000000 H
   H1207      1.0     0.037613      0.831976      0.971664     Biso  1.000000 H
   H1208      1.0     0.457879      0.505437      0.965474     Biso  1.000000 H

# Number_of_total_atoms: 1608
# Number_of_atom_type: 2
# Name_of_each_atom:  C  H
# Number_of_each_atom: 600 1208
# Created_by: Lihua Chen (lihua.chen@mse.gatech.edu)
# Tool: VASP
# K-points: 1 1 1
# Pseudopotential: PBE-HSE06
# Material_class: MC_Pol
# Geometry_class: GC_PD
# Bandgap_(eV): 6.41

# Note: average bandgap of 5 configurations
# Note:  HSE06 Band gap is derived from PBE band gap, based on Eg (HSE06)=1.140*Eg (PBE) + 0.799, R2=0.97
