#======================================================================

# Note: Amorphous region of syndiotactic polypropylene
# Common_name: Amorphous region
#----------------------------------------------------------------------

data_VESTA_phase_1


_chemical_name_common                  'C  H                                  '
_cell_length_a                         19.17819
_cell_length_b                         43.16619
_cell_length_c                         19.75035
_cell_angle_alpha                      90
_cell_angle_beta                       90
_cell_angle_gamma                      90
_space_group_name_H-M_alt              'P 1'
_space_group_IT_number                 1

loop_
_space_group_symop_operation_xyz
   'x, y, z'

loop_
   _atom_site_label
   _atom_site_occupancy
   _atom_site_fract_x
   _atom_site_fract_y
   _atom_site_fract_z
   _atom_site_adp_type
   _atom_site_B_iso_or_equiv
   _atom_site_type_symbol
   C1         1.0     0.895984      0.796823      0.388164     Biso  1.000000 C
   C2         1.0     0.711091      0.381493      0.181196     Biso  1.000000 C
   C3         1.0     0.761247      0.356309      0.204679     Biso  1.000000 C
   C4         1.0     0.634583      0.373475      0.205155     Biso  1.000000 C
   C5         1.0     0.772536      0.392022      0.060919     Biso  1.000000 C
   C6         1.0     0.707958      0.382983      0.104554     Biso  1.000000 C
   C7         1.0     0.746335      0.399977      0.987125     Biso  1.000000 C
   C8         1.0     0.795234      0.380325      0.318181     Biso  1.000000 C
   C9         1.0     0.881999      0.431467      0.054464     Biso  1.000000 C
   C10        1.0     0.930596      0.404407      0.050894     Biso  1.000000 C
   C11        1.0     0.873010      0.487923      0.106265     Biso  1.000000 C
   C12        1.0     0.912283      0.458630      0.099425     Biso  1.000000 C
   C13        1.0     0.892469      0.503915      0.175889     Biso  1.000000 C
   C14        1.0     0.820231      0.528919      0.019679     Biso  1.000000 C
   C15        1.0     0.881305      0.508217      0.043532     Biso  1.000000 C
   C16        1.0     0.811158      0.421876      0.088691     Biso  1.000000 C
   C17        1.0     0.832245      0.324397      0.290130     Biso  1.000000 C
   C18        1.0     0.776165      0.350258      0.281123     Biso  1.000000 C
   C19        1.0     0.782850      0.299225      0.393414     Biso  1.000000 C
   C20        1.0     0.077220      0.108082      0.636681     Biso  1.000000 C
   C21        1.0     0.925575      0.140517      0.667891     Biso  1.000000 C
   C22        1.0     0.946129      0.105895      0.670827     Biso  1.000000 C
   C23        1.0     0.852299      0.144650      0.694867     Biso  1.000000 C
   C24        1.0     0.940732      0.192058      0.597300     Biso  1.000000 C
   C25        1.0     0.932723      0.156066      0.596646     Biso  1.000000 C
   C26        1.0     0.011510      0.201014      0.628783     Biso  1.000000 C
   C27        1.0     0.921846      0.242720      0.527924     Biso  1.000000 C
   C28        1.0     0.916966      0.205441      0.533346     Biso  1.000000 C
   C29        1.0     0.861017      0.258355      0.569594     Biso  1.000000 C
   C30        1.0     0.936577      0.287204      0.432897     Biso  1.000000 C
   C31        1.0     0.912987      0.251088      0.452163     Biso  1.000000 C
   C32        1.0     0.016724      0.290598      0.431227     Biso  1.000000 C
   C33        1.0     0.845327      0.316000      0.365770     Biso  1.000000 C
   C34        1.0     0.910443      0.295683      0.365461     Biso  1.000000 C
   C35        1.0     0.771806      0.509009      0.975333     Biso  1.000000 C
   C36        1.0     0.864792      0.586257      0.033659     Biso  1.000000 C
   C37        1.0     0.838361      0.560839      0.984417     Biso  1.000000 C
   C38        1.0     0.892547      0.614305      0.989424     Biso  1.000000 C
   C39        1.0     0.602113      0.686241      0.679141     Biso  1.000000 C
   C40        1.0     0.514029      0.729253      0.686690     Biso  1.000000 C
   C41        1.0     0.485017      0.648422      0.774441     Biso  1.000000 C
   C42        1.0     0.506781      0.682636      0.767074     Biso  1.000000 C
   C43        1.0     0.466496      0.642146      0.851062     Biso  1.000000 C
   C44        1.0     0.380169      0.609982      0.740396     Biso  1.000000 C
   C45        1.0     0.422211      0.641669      0.725236     Biso  1.000000 C
   C46        1.0     0.433333      0.584318      0.734933     Biso  1.000000 C
   C47        1.0     0.248900      0.590874      0.716923     Biso  1.000000 C
   C48        1.0     0.317936      0.606030      0.687500     Biso  1.000000 C
   C49        1.0     0.258405      0.556308      0.734462     Biso  1.000000 C
   C50        1.0     0.139520      0.597648      0.790091     Biso  1.000000 C
   C51        1.0     0.206810      0.612333      0.766831     Biso  1.000000 C
   C52        1.0     0.089771      0.593355      0.732583     Biso  1.000000 C
   C53        1.0     0.112959      0.608105      0.922266     Biso  1.000000 C
   C54        1.0     0.529098      0.693527      0.697708     Biso  1.000000 C
   C55        1.0     0.034870      0.066719      0.710406     Biso  1.000000 C
   C56        1.0     0.575359      0.693149      0.549270     Biso  1.000000 C
   C57        1.0     0.630489      0.696610      0.608540     Biso  1.000000 C
   C58        1.0     0.840671      0.620472      0.143505     Biso  1.000000 C
   C59        1.0     0.812910      0.597532      0.090903     Biso  1.000000 C
   C60        1.0     0.883089      0.602108      0.197423     Biso  1.000000 C
   C61        1.0     0.808947      0.665254      0.225519     Biso  1.000000 C
   C62        1.0     0.782876      0.639248      0.176715     Biso  1.000000 C
   C63        1.0     0.857659      0.690174      0.199119     Biso  1.000000 C
   C64        1.0     0.713725      0.666327      0.310940     Biso  1.000000 C
   C65        1.0     0.744410      0.683169      0.251437     Biso  1.000000 C
   C66        1.0     0.634624      0.673884      0.317866     Biso  1.000000 C
   C67        1.0     0.744437      0.651348      0.440685     Biso  1.000000 C
   C68        1.0     0.751909      0.674488      0.378321     Biso  1.000000 C
   C69        1.0     0.775607      0.619696      0.426437     Biso  1.000000 C
   C70        1.0     0.739691      0.693061      0.537883     Biso  1.000000 C
   C71        1.0     0.780180      0.665762      0.504552     Biso  1.000000 C
   C72        1.0     0.793534      0.717158      0.562976     Biso  1.000000 C
   C73        1.0     0.696455      0.678767      0.596348     Biso  1.000000 C
   C74        1.0     0.103417      0.617875      0.846338     Biso  1.000000 C
   C75        1.0     0.022351      0.100604      0.688062     Biso  1.000000 C
   C76        1.0     0.061979      0.048577      0.829766     Biso  1.000000 C
   C77        1.0     0.981638      0.498904      0.840794     Biso  1.000000 C
   C78        1.0     0.055216      0.513724      0.849285     Biso  1.000000 C
   C79        1.0     0.930950      0.522664      0.808876     Biso  1.000000 C
   C80        1.0     0.921925      0.449004      0.817605     Biso  1.000000 C
   C81        1.0     0.984443      0.469161      0.802071     Biso  1.000000 C
   C82        1.0     0.946374      0.426005      0.869411     Biso  1.000000 C
   C83        1.0     0.177292      0.510582      0.895396     Biso  1.000000 C
   C84        1.0     0.813421      0.425057      0.768016     Biso  1.000000 C
   C85        1.0     0.762269      0.452449      0.748036     Biso  1.000000 C
   C86        1.0     0.731124      0.376183      0.736173     Biso  1.000000 C
   C87        1.0     0.801491      0.393002      0.731879     Biso  1.000000 C
   C88        1.0     0.716973      0.368587      0.807706     Biso  1.000000 C
   C89        1.0     0.719272      0.355069      0.614692     Biso  1.000000 C
   C90        1.0     0.726979      0.346171      0.688873     Biso  1.000000 C
   C91        1.0     0.890921      0.434398      0.753960     Biso  1.000000 C
   C92        1.0     0.077106      0.511087      0.977814     Biso  1.000000 C
   C93        1.0     0.101837      0.500755      0.906889     Biso  1.000000 C
   C94        1.0     0.118173      0.459005      0.035026     Biso  1.000000 C
   C95        1.0     0.464259      0.579961      0.494790     Biso  1.000000 C
   C96        1.0     0.445555      0.593339      0.332109     Biso  1.000000 C
   C97        1.0     0.508507      0.579120      0.372321     Biso  1.000000 C
   C98        1.0     0.470631      0.614671      0.280019     Biso  1.000000 C
   C99        1.0     0.326337      0.576849      0.272207     Biso  1.000000 C
   C100       1.0     0.401010      0.567708      0.302135     Biso  1.000000 C
   C101       1.0     0.279064      0.587214      0.333694     Biso  1.000000 C
   C102       1.0     0.244494      0.553570      0.185003     Biso  1.000000 C
   C103       1.0     0.300145      0.547479      0.238486     Biso  1.000000 C
   C104       1.0     0.281259      0.563019      0.122260     Biso  1.000000 C
   C105       1.0     0.127788      0.536200      0.131596     Biso  1.000000 C
   C106       1.0     0.190943      0.526850      0.172492     Biso  1.000000 C
   C107       1.0     0.071756      0.555673      0.167084     Biso  1.000000 C
   C108       1.0     0.119774      0.494521      0.039082     Biso  1.000000 C
   C109       1.0     0.092305      0.506987      0.105303     Biso  1.000000 C
   C110       1.0     0.729878      0.325648      0.569224     Biso  1.000000 C
   C111       1.0     0.635292      0.377724      0.521807     Biso  1.000000 C
   C112       1.0     0.648875      0.369606      0.597684     Biso  1.000000 C
   C113       1.0     0.675311      0.407453      0.507418     Biso  1.000000 C
   C114       1.0     0.220790      0.263702      0.645851     Biso  1.000000 C
   C115       1.0     0.303290      0.256613      0.745277     Biso  1.000000 C
   C116       1.0     0.208401      0.190489      0.761069     Biso  1.000000 C
   C117       1.0     0.191042      0.223517      0.744188     Biso  1.000000 C
   C118       1.0     0.198441      0.167105      0.703389     Biso  1.000000 C
   C119       1.0     0.200313      0.148778      0.858237     Biso  1.000000 C
   C120       1.0     0.173225      0.179170      0.825559     Biso  1.000000 C
   C121       1.0     0.276869      0.151185      0.874566     Biso  1.000000 C
   C122       1.0     0.075270      0.128123      0.908109     Biso  1.000000 C
   C123       1.0     0.155413      0.138967      0.922281     Biso  1.000000 C
   C124       1.0     0.027461      0.144229      0.961425     Biso  1.000000 C
   C125       1.0     0.111290      0.076157      0.857776     Biso  1.000000 C
   C126       1.0     0.071558      0.092565      0.913795     Biso  1.000000 C
   C127       1.0     0.184441      0.062058      0.880950     Biso  1.000000 C
   C128       1.0     0.007042      0.056521      0.778658     Biso  1.000000 C
   C129       1.0     0.248363      0.238816      0.701794     Biso  1.000000 C
   C130       1.0     0.957189      0.029132      0.765661     Biso  1.000000 C
   C131       1.0     0.181526      0.276839      0.532384     Biso  1.000000 C
   C132       1.0     0.235405      0.257092      0.571806     Biso  1.000000 C
   C133       1.0     0.521902      0.349243      0.481140     Biso  1.000000 C
   C134       1.0     0.557271      0.380529      0.500456     Biso  1.000000 C
   C135       1.0     0.449085      0.349009      0.503777     Biso  1.000000 C
   C136       1.0     0.517882      0.306358      0.388944     Biso  1.000000 C
   C137       1.0     0.527226      0.341376      0.404503     Biso  1.000000 C
   C138       1.0     0.583133      0.287278      0.394832     Biso  1.000000 C
   C139       1.0     0.411908      0.307002      0.307796     Biso  1.000000 C
   C140       1.0     0.488995      0.298935      0.316930     Biso  1.000000 C
   C141       1.0     0.412361      0.330448      0.249047     Biso  1.000000 C
   C142       1.0     0.346140      0.257315      0.353734     Biso  1.000000 C
   C143       1.0     0.358044      0.282181      0.295031     Biso  1.000000 C
   C144       1.0     0.286614      0.236345      0.333755     Biso  1.000000 C
   C145       1.0     0.340363      0.249691      0.484653     Biso  1.000000 C
   C146       1.0     0.334982      0.272042      0.425905     Biso  1.000000 C
   C147       1.0     0.419859      0.241733      0.492613     Biso  1.000000 C
   C148       1.0     0.311283      0.265525      0.550667     Biso  1.000000 C
   C149       1.0     0.491112      0.903040      0.830738     Biso  1.000000 C
   C150       1.0     0.436545      0.884889      0.873426     Biso  1.000000 C
   C151       1.0     0.523211      0.926294      0.876864     Biso  1.000000 C
   C152       1.0     0.265043      0.442193      0.237954     Biso  1.000000 C
   C153       1.0     0.417638      0.433267      0.293290     Biso  1.000000 C
   C154       1.0     0.395879      0.445082      0.224506     Biso  1.000000 C
   C155       1.0     0.492098      0.421823      0.285776     Biso  1.000000 C
   C156       1.0     0.411058      0.440903      0.419323     Biso  1.000000 C
   C157       1.0     0.410109      0.456786      0.352063     Biso  1.000000 C
   C158       1.0     0.313108      0.446129      0.121075     Biso  1.000000 C
   C159       1.0     0.341213      0.426025      0.434467     Biso  1.000000 C
   C160       1.0     0.428911      0.465311      0.472740     Biso  1.000000 C
   C161       1.0     0.557578      0.469573      0.436826     Biso  1.000000 C
   C162       1.0     0.489345      0.479139      0.627177     Biso  1.000000 C
   C163       1.0     0.526684      0.488239      0.557123     Biso  1.000000 C
   C164       1.0     0.419489      0.495554      0.637512     Biso  1.000000 C
   C165       1.0     0.522351      0.469173      0.763393     Biso  1.000000 C
   C166       1.0     0.507631      0.465223      0.496405     Biso  1.000000 C
   C167       1.0     0.325075      0.433010      0.194684     Biso  1.000000 C
   C168       1.0     0.353461      0.455148      0.996634     Biso  1.000000 C
   C169       1.0     0.359635      0.402146      0.049365     Biso  1.000000 C
   C170       1.0     0.580662      0.205228      0.626823     Biso  1.000000 C
   C171       1.0     0.669800      0.242593      0.684868     Biso  1.000000 C
   C172       1.0     0.544517      0.280314      0.729874     Biso  1.000000 C
   C173       1.0     0.537300      0.247284      0.704361     Biso  1.000000 C
   C174       1.0     0.508241      0.301379      0.677379     Biso  1.000000 C
   C175       1.0     0.538963      0.309652      0.845336     Biso  1.000000 C
   C176       1.0     0.510525      0.283620      0.801154     Biso  1.000000 C
   C177       1.0     0.604543      0.296853      0.885573     Biso  1.000000 C
   C178       1.0     0.494903      0.351824      0.935121     Biso  1.000000 C
   C179       1.0     0.480392      0.323239      0.891097     Biso  1.000000 C
   C180       1.0     0.505431      0.381889      0.890302     Biso  1.000000 C
   C181       1.0     0.431972      0.387284      0.031284     Biso  1.000000 C
   C182       1.0     0.432405      0.357185      0.985485     Biso  1.000000 C
   C183       1.0     0.479761      0.381484      0.096139     Biso  1.000000 C
   C184       1.0     0.365678      0.437196      0.065582     Biso  1.000000 C
   C185       1.0     0.539047      0.483946      0.693414     Biso  1.000000 C
   C186       1.0     0.527106      0.432686      0.754806     Biso  1.000000 C
   C187       1.0     0.527993      0.487143      0.889213     Biso  1.000000 C
   C188       1.0     0.564013      0.484592      0.819093     Biso  1.000000 C
   C189       1.0     0.915678      0.498728      0.610109     Biso  1.000000 C
   C190       1.0     0.863139      0.478068      0.569477     Biso  1.000000 C
   C191       1.0     0.987442      0.485280      0.611082     Biso  1.000000 C
   C192       1.0     0.843778      0.551554      0.602986     Biso  1.000000 C
   C193       1.0     0.915193      0.534636      0.602920     Biso  1.000000 C
   C194       1.0     0.860229      0.586091      0.590003     Biso  1.000000 C
   C195       1.0     0.724581      0.560390      0.653962     Biso  1.000000 C
   C196       1.0     0.797163      0.546826      0.664645     Biso  1.000000 C
   C197       1.0     0.673783      0.544370      0.605573     Biso  1.000000 C
   C198       1.0     0.713688      0.579124      0.782952     Biso  1.000000 C
   C199       1.0     0.685734      0.558469      0.725550     Biso  1.000000 C
   C200       1.0     0.670133      0.570446      0.844591     Biso  1.000000 C
   C201       1.0     0.745797      0.634559      0.828040     Biso  1.000000 C
   C202       1.0     0.706435      0.614479      0.772927     Biso  1.000000 C
   C203       1.0     0.722604      0.667485      0.826217     Biso  1.000000 C
   C204       1.0     0.910307      0.455282      0.458831     Biso  1.000000 C
   C205       1.0     0.596492      0.238066      0.653486     Biso  1.000000 C
   C206       1.0     0.795510      0.481657      0.457008     Biso  1.000000 C
   C207       1.0     0.786448      0.536658      0.403171     Biso  1.000000 C
   C208       1.0     0.464582      0.508080      0.887861     Biso  1.000000 C
   C209       1.0     0.552479      0.491197      0.018763     Biso  1.000000 C
   C210       1.0     0.582278      0.494236      0.946949     Biso  1.000000 C
   C211       1.0     0.561421      0.457907      0.048646     Biso  1.000000 C
   C212       1.0     0.549428      0.513779      0.137308     Biso  1.000000 C
   C213       1.0     0.589954      0.512220      0.066848     Biso  1.000000 C
   C214       1.0     0.469129      0.512723      0.132417     Biso  1.000000 C
   C215       1.0     0.650715      0.539112      0.207266     Biso  1.000000 C
   C216       1.0     0.575474      0.542362      0.179575     Biso  1.000000 C
   C217       1.0     0.684201      0.570405      0.225995     Biso  1.000000 C
   C218       1.0     0.714043      0.499310      0.274748     Biso  1.000000 C
   C219       1.0     0.648348      0.518489      0.272875     Biso  1.000000 C
   C220       1.0     0.719038      0.473102      0.224982     Biso  1.000000 C
   C221       1.0     0.792606      0.499933      0.390098     Biso  1.000000 C
   C222       1.0     0.727553      0.488336      0.350955     Biso  1.000000 C
   C223       1.0     0.865751      0.479672      0.491950     Biso  1.000000 C
   C224       1.0     0.615796      0.216456      0.502785     Biso  1.000000 C
   C225       1.0     0.598197      0.161775      0.543695     Biso  1.000000 C
   C226       1.0     0.624858      0.192718      0.563214     Biso  1.000000 C
   C227       1.0     0.261946      0.129993      0.476456     Biso  1.000000 C
   C228       1.0     0.325330      0.152717      0.372286     Biso  1.000000 C
   C229       1.0     0.122840      0.162984      0.383222     Biso  1.000000 C
   C230       1.0     0.195083      0.147975      0.369552     Biso  1.000000 C
   C231       1.0     0.099475      0.157843      0.456836     Biso  1.000000 C
   C232       1.0     0.997990      0.177495      0.332945     Biso  1.000000 C
   C233       1.0     0.062537      0.157813      0.329765     Biso  1.000000 C
   C234       1.0     0.016672      0.209794      0.307664     Biso  1.000000 C
   C235       1.0     0.870163      0.183345      0.282824     Biso  1.000000 C
   C236       1.0     0.942583      0.166278      0.283958     Biso  1.000000 C
   C237       1.0     0.831999      0.173286      0.347719     Biso  1.000000 C
   C238       1.0     0.845822      0.193749      0.157707     Biso  1.000000 C
   C239       1.0     0.821347      0.177850      0.222020     Biso  1.000000 C
   C240       1.0     0.880951      0.172531      0.103870     Biso  1.000000 C
   C241       1.0     0.776457      0.244893      0.155996     Biso  1.000000 C
   C242       1.0     0.256502      0.153474      0.417039     Biso  1.000000 C
   C243       1.0     0.786917      0.212469      0.123100     Biso  1.000000 C
   C244       1.0     0.340681      0.163278      0.554612     Biso  1.000000 C
   C245       1.0     0.329330      0.131730      0.525200     Biso  1.000000 C
   C246       1.0     0.502870      0.932510      0.717196     Biso  1.000000 C
   C247       1.0     0.456823      0.914433      0.762390     Biso  1.000000 C
   C248       1.0     0.560618      0.912005      0.690609     Biso  1.000000 C
   C249       1.0     0.395332      0.965290      0.672407     Biso  1.000000 C
   C250       1.0     0.460729      0.947021      0.656023     Biso  1.000000 C
   C251       1.0     0.349884      0.974193      0.610008     Biso  1.000000 C
   C252       1.0     0.346072      0.010490      0.756466     Biso  1.000000 C
   C253       1.0     0.410557      0.992293      0.721145     Biso  1.000000 C
   C254       1.0     0.304379      0.989272      0.801524     Biso  1.000000 C
   C255       1.0     0.394784      0.065431      0.748208     Biso  1.000000 C
   C256       1.0     0.363884      0.040485      0.794881     Biso  1.000000 C
   C257       1.0     0.413383      0.093110      0.792638     Biso  1.000000 C
   C258       1.0     0.373124      0.100120      0.638787     Biso  1.000000 C
   C259       1.0     0.343726      0.078031      0.693617     Biso  1.000000 C
   C260       1.0     0.432577      0.082595      0.600049     Biso  1.000000 C
   C261       1.0     0.315407      0.109196      0.584226     Biso  1.000000 C
   C262       1.0     0.589797      0.583966      0.471813     Biso  1.000000 C
   C263       1.0     0.729393      0.246524      0.219721     Biso  1.000000 C
   C264       1.0     0.748227      0.267999      0.102878     Biso  1.000000 C
   C265       1.0     0.483776      0.222005      0.083572     Biso  1.000000 C
   C266       1.0     0.497588      0.225331      0.010054     Biso  1.000000 C
   C267       1.0     0.509383      0.250054      0.124857     Biso  1.000000 C
   C268       1.0     0.484104      0.185159      0.186755     Biso  1.000000 C
   C269       1.0     0.509998      0.190336      0.109642     Biso  1.000000 C
   C270       1.0     0.408200      0.171991      0.193069     Biso  1.000000 C
   C271       1.0     0.521245      0.162171      0.305006     Biso  1.000000 C
   C272       1.0     0.532785      0.163489      0.226739     Biso  1.000000 C
   C273       1.0     0.534219      0.193781      0.336246     Biso  1.000000 C
   C274       1.0     0.542577      0.124229      0.401516     Biso  1.000000 C
   C275       1.0     0.569576      0.138833      0.335390     Biso  1.000000 C
   C276       1.0     0.491931      0.098765      0.383314     Biso  1.000000 C
   C277       1.0     0.641533      0.140631      0.491914     Biso  1.000000 C
   C278       1.0     0.599058      0.115468      0.455748     Biso  1.000000 C
   C279       1.0     0.706774      0.127262      0.528602     Biso  1.000000 C
   C280       1.0     0.493407      0.195389      0.895041     Biso  1.000000 C
   C281       1.0     0.804249      0.278282      0.052560     Biso  1.000000 C
   C282       1.0     0.388626      0.227092      0.930225     Biso  1.000000 C
   C283       1.0     0.308003      0.273436      0.944296     Biso  1.000000 C
   C284       1.0     0.768464      0.296549      0.992422     Biso  1.000000 C
   C285       1.0     0.932749      0.280884      0.102574     Biso  1.000000 C
   C286       1.0     0.864244      0.297561      0.085769     Biso  1.000000 C
   C287       1.0     0.970584      0.300524      0.156295     Biso  1.000000 C
   C288       1.0     0.025500      0.248572      0.029786     Biso  1.000000 C
   C289       1.0     0.979266      0.278477      0.038788     Biso  1.000000 C
   C290       1.0     0.050774      0.246056      0.958731     Biso  1.000000 C
   C291       1.0     0.134113      0.217844      0.077005     Biso  1.000000 C
   C292       1.0     0.085469      0.248305      0.081678     Biso  1.000000 C
   C293       1.0     0.091434      0.192315      0.106701     Biso  1.000000 C
   C294       1.0     0.256132      0.240524      0.083607     Biso  1.000000 C
   C295       1.0     0.202972      0.218944      0.116366     Biso  1.000000 C
   C296       1.0     0.303681      0.257905      0.135303     Biso  1.000000 C
   C297       1.0     0.344837      0.246195      0.982305     Biso  1.000000 C
   C298       1.0     0.292877      0.226022      0.022616     Biso  1.000000 C
   C299       1.0     0.455937      0.206604      0.960437     Biso  1.000000 C
   C300       1.0     0.519947      0.591736      0.442229     Biso  1.000000 C
   C301       1.0     0.191595      0.609224      0.941410     Biso  1.000000 C
   C302       1.0     0.388996      0.983422      0.413824     Biso  1.000000 C
   C303       1.0     0.143473      0.353471      0.082134     Biso  1.000000 C
   C304       1.0     0.127475      0.377548      0.139536     Biso  1.000000 C
   C305       1.0     0.197571      0.330592      0.104751     Biso  1.000000 C
   C306       1.0     0.147159      0.355748      0.955744     Biso  1.000000 C
   C307       1.0     0.170389      0.370419      0.018895     Biso  1.000000 C
   C308       1.0     0.073002      0.367426      0.935648     Biso  1.000000 C
   C309       1.0     0.040736      0.389460      0.235346     Biso  1.000000 C
   C310       1.0     0.180207      0.347392      0.827711     Biso  1.000000 C
   C311       1.0     0.153734      0.314306      0.837969     Biso  1.000000 C
   C312       1.0     0.282485      0.380182      0.770744     Biso  1.000000 C
   C313       1.0     0.242689      0.349876      0.777504     Biso  1.000000 C
   C314       1.0     0.341912      0.373445      0.717935     Biso  1.000000 C
   C315       1.0     0.271279      0.439900      0.736127     Biso  1.000000 C
   C316       1.0     0.236646      0.407724      0.741829     Biso  1.000000 C
   C317       1.0     0.200141      0.362263      0.895639     Biso  1.000000 C
   C318       1.0     0.154251      0.360724      0.256961     Biso  1.000000 C
   C319       1.0     0.095215      0.365612      0.205033     Biso  1.000000 C
   C320       1.0     0.144041      0.304477      0.280267     Biso  1.000000 C
   C321       1.0     0.935440      0.332005      0.851133     Biso  1.000000 C
   C322       1.0     0.984396      0.330041      0.659314     Biso  1.000000 C
   C323       1.0     0.995341      0.331743      0.737393     Biso  1.000000 C
   C324       1.0     0.020364      0.301611      0.627785     Biso  1.000000 C
   C325       1.0     0.987629      0.364500      0.552272     Biso  1.000000 C
   C326       1.0     0.009529      0.360724      0.629015     Biso  1.000000 C
   C327       1.0     0.906297      0.362763      0.538926     Biso  1.000000 C
   C328       1.0     0.094964      0.393590      0.501013     Biso  1.000000 C
   C329       1.0     0.020119      0.393472      0.522612     Biso  1.000000 C
   C330       1.0     0.106994      0.426769      0.470856     Biso  1.000000 C
   C331       1.0     0.181422      0.368948      0.419753     Biso  1.000000 C
   C332       1.0     0.111431      0.365874      0.454117     Biso  1.000000 C
   C333       1.0     0.241245      0.367783      0.470512     Biso  1.000000 C
   C334       1.0     0.143410      0.337820      0.312636     Biso  1.000000 C
   C335       1.0     0.192315      0.341431      0.371531     Biso  1.000000 C
   C336       1.0     0.304823      0.449345      0.803595     Biso  1.000000 C
   C337       1.0     0.232569      0.469393      0.626615     Biso  1.000000 C
   C338       1.0     0.223433      0.466434      0.708062     Biso  1.000000 C
   C339       1.0     0.226489      0.438908      0.587224     Biso  1.000000 C
   C340       1.0     0.205543      0.692950      0.357486     Biso  1.000000 C
   C341       1.0     0.297559      0.716304      0.273619     Biso  1.000000 C
   C342       1.0     0.352022      0.686683      0.456173     Biso  1.000000 C
   C343       1.0     0.344013      0.690652      0.378205     Biso  1.000000 C
   C344       1.0     0.412560      0.663901      0.471165     Biso  1.000000 C
   C345       1.0     0.306475      0.730046      0.537923     Biso  1.000000 C
   C346       1.0     0.361178      0.720786      0.487053     Biso  1.000000 C
   C347       1.0     0.317024      0.764478      0.556465     Biso  1.000000 C
   C348       1.0     0.234420      0.705976      0.632636     Biso  1.000000 C
   C349       1.0     0.306736      0.711812      0.602986     Biso  1.000000 C
   C350       1.0     0.191658      0.682307      0.583857     Biso  1.000000 C
   C351       1.0     0.259266      0.713987      0.766329     Biso  1.000000 C
   C352       1.0     0.230342      0.694082      0.705217     Biso  1.000000 C
   C353       1.0     0.269021      0.694117      0.830835     Biso  1.000000 C
   C354       1.0     0.221087      0.766496      0.833275     Biso  1.000000 C
   C355       1.0     0.279247      0.707883      0.347810     Biso  1.000000 C
   C356       1.0     0.936102      0.318724      0.782435     Biso  1.000000 C
   C357       1.0     0.134181      0.736359      0.413485     Biso  1.000000 C
   C358       1.0     0.145225      0.716987      0.347831     Biso  1.000000 C
   C359       1.0     0.202941      0.510573      0.534197     Biso  1.000000 C
   C360       1.0     0.178434      0.492853      0.598960     Biso  1.000000 C
   C361       1.0     0.247852      0.538414      0.554556     Biso  1.000000 C
   C362       1.0     0.162035      0.529294      0.413278     Biso  1.000000 C
   C363       1.0     0.144422      0.522481      0.486380     Biso  1.000000 C
   C364       1.0     0.205262      0.501188      0.381197     Biso  1.000000 C
   C365       1.0     0.046540      0.558859      0.388817     Biso  1.000000 C
   C366       1.0     0.094187      0.530966      0.368863     Biso  1.000000 C
   C367       1.0     0.973650      0.554455      0.360018     Biso  1.000000 C
   C368       1.0     0.036127      0.620337      0.395242     Biso  1.000000 C
   C369       1.0     0.077716      0.591794      0.376205     Biso  1.000000 C
   C370       1.0     0.032508      0.626842      0.474350     Biso  1.000000 C
   C371       1.0     0.037514      0.680009      0.366033     Biso  1.000000 C
   C372       1.0     0.064482      0.646786      0.351896     Biso  1.000000 C
   C373       1.0     0.958821      0.681774      0.348944     Biso  1.000000 C
   C374       1.0     0.077460      0.703423      0.318383     Biso  1.000000 C
   C375       1.0     0.804598      0.279645      0.809417     Biso  1.000000 C
   C376       1.0     0.885612      0.231262      0.825731     Biso  1.000000 C
   C377       1.0     0.877186      0.267640      0.826582     Biso  1.000000 C
   C378       1.0     0.494981      0.955437      0.235767     Biso  1.000000 C
   C379       1.0     0.396901      0.981673      0.162953     Biso  1.000000 C
   C380       1.0     0.369354      0.911711      0.106822     Biso  1.000000 C
   C381       1.0     0.402272      0.921705      0.174624     Biso  1.000000 C
   C382       1.0     0.424594      0.895034      0.064788     Biso  1.000000 C
   C383       1.0     0.256502      0.885642      0.057056     Biso  1.000000 C
   C384       1.0     0.304645      0.892478      0.117865     Biso  1.000000 C
   C385       1.0     0.198666      0.909385      0.045871     Biso  1.000000 C
   C386       1.0     0.279116      0.825586      0.064884     Biso  1.000000 C
   C387       1.0     0.226447      0.852433      0.062950     Biso  1.000000 C
   C388       1.0     0.246512      0.794550      0.093197     Biso  1.000000 C
   C389       1.0     0.369636      0.794856      0.991257     Biso  1.000000 C
   C390       1.0     0.313436      0.820719      0.996776     Biso  1.000000 C
   C391       1.0     0.423734      0.799799      0.050403     Biso  1.000000 C
   C392       1.0     0.452714      0.764529      0.906671     Biso  1.000000 C
   C393       1.0     0.446901      0.952095      0.170396     Biso  1.000000 C
   C394       1.0     0.397511      0.791372      0.916200     Biso  1.000000 C
   C395       1.0     0.571104      0.905095      0.245189     Biso  1.000000 C
   C396       1.0     0.566917      0.940081      0.229995     Biso  1.000000 C
   C397       1.0     0.522992      0.996995      0.420968     Biso  1.000000 C
   C398       1.0     0.860057      0.773128      0.438366     Biso  1.000000 C
   C399       1.0     0.948960      0.780340      0.342459     Biso  1.000000 C
   C400       1.0     0.867357      0.847777      0.453879     Biso  1.000000 C
   C401       1.0     0.924985      0.825644      0.427915     Biso  1.000000 C
   C402       1.0     0.896781      0.866817      0.513671     Biso  1.000000 C
   C403       1.0     0.806423      0.896866      0.410842     Biso  1.000000 C
   C404       1.0     0.839680      0.865782      0.392022     Biso  1.000000 C
   C405       1.0     0.740098      0.892977      0.457616     Biso  1.000000 C
   C406       1.0     0.766143      0.951272      0.359370     Biso  1.000000 C
   C407       1.0     0.789519      0.917452      0.346489     Biso  1.000000 C
   C408       1.0     0.811028      0.970549      0.406604     Biso  1.000000 C
   C409       1.0     0.698744      0.959716      0.241924     Biso  1.000000 C
   C410       1.0     0.752586      0.970764      0.294601     Biso  1.000000 C
   C411       1.0     0.701919      0.983693      0.180968     Biso  1.000000 C
   C412       1.0     0.623732      0.960485      0.264450     Biso  1.000000 C
   C413       1.0     0.204865      0.739560      0.782552     Biso  1.000000 C
   C414       1.0     0.422451      0.732186      0.917218     Biso  1.000000 C
   C415       1.0     0.485491      0.770795      0.836845     Biso  1.000000 C
   C416       1.0     0.642586      0.032444      0.782364     Biso  1.000000 C
   C417       1.0     0.701101      0.019101      0.739424     Biso  1.000000 C
   C418       1.0     0.587519      0.007077      0.808455     Biso  1.000000 C
   C419       1.0     0.714371      0.078110      0.836050     Biso  1.000000 C
   C420       1.0     0.671348      0.049006      0.846930     Biso  1.000000 C
   C421       1.0     0.781656      0.077954      0.879664     Biso  1.000000 C
   C422       1.0     0.692320      0.134645      0.809286     Biso  1.000000 C
   C423       1.0     0.669085      0.105374      0.847695     Biso  1.000000 C
   C424       1.0     0.670869      0.132845      0.733419     Biso  1.000000 C
   C425       1.0     0.723105      0.181656      0.886748     Biso  1.000000 C
   C426       1.0     0.664898      0.163883      0.847832     Biso  1.000000 C
   C427       1.0     0.688800      0.205605      0.934686     Biso  1.000000 C
   C428       1.0     0.843758      0.214395      0.877644     Biso  1.000000 C
   C429       1.0     0.781828      0.198919      0.841533     Biso  1.000000 C
   C430       1.0     0.890420      0.191930      0.916615     Biso  1.000000 C
   C431       1.0     0.627658      0.024304      0.630788     Biso  1.000000 C
   C432       1.0     0.528858      0.800128      0.828840     Biso  1.000000 C
   C433       1.0     0.748910      0.994399      0.632803     Biso  1.000000 C
   C434       1.0     0.872655      0.970797      0.628479     Biso  1.000000 C
   C435       1.0     0.505796      0.816961      0.764907     Biso  1.000000 C
   C436       1.0     0.664220      0.815861      0.825518     Biso  1.000000 C
   C437       1.0     0.605096      0.790053      0.822658     Biso  1.000000 C
   C438       1.0     0.669367      0.831357      0.897628     Biso  1.000000 C
   C439       1.0     0.750125      0.809467      0.726872     Biso  1.000000 C
   C440       1.0     0.738847      0.803571      0.803326     Biso  1.000000 C
   C441       1.0     0.741699      0.780071      0.689749     Biso  1.000000 C
   C442       1.0     0.842068      0.857127      0.730052     Biso  1.000000 C
   C443       1.0     0.825211      0.821821      0.710690     Biso  1.000000 C
   C444       1.0     0.915495      0.865170      0.713606     Biso  1.000000 C
   C445       1.0     0.799285      0.913629      0.715525     Biso  1.000000 C
   C446       1.0     0.790504      0.879121      0.694310     Biso  1.000000 C
   C447       1.0     0.772046      0.916375      0.790542     Biso  1.000000 C
   C448       1.0     0.796678      0.968561      0.659152     Biso  1.000000 C
   C449       1.0     0.764324      0.935005      0.661430     Biso  1.000000 C
   C450       1.0     0.678972      0.003296      0.671744     Biso  1.000000 C
   C451       1.0     0.160810      0.790324      0.838232     Biso  1.000000 C
   C452       1.0     0.934074      0.282830      0.781099     Biso  1.000000 C
   C453       1.0     0.446708      0.006412      0.439383     Biso  1.000000 C
   C454       1.0     0.194562      0.908781      0.314150     Biso  1.000000 C
   C455       1.0     0.036971      0.913729      0.255493     Biso  1.000000 C
   C456       1.0     0.095866      0.890910      0.234779     Biso  1.000000 C
   C457       1.0     0.993840      0.897886      0.311300     Biso  1.000000 C
   C458       1.0     0.003621      0.958729      0.173373     Biso  1.000000 C
   C459       1.0     0.991154      0.923885      0.192061     Biso  1.000000 C
   C460       1.0     0.197096      0.854713      0.260075     Biso  1.000000 C
   C461       1.0     0.988083      0.982218      0.228349     Biso  1.000000 C
   C462       1.0     0.078592      0.964317      0.143475     Biso  1.000000 C
   C463       1.0     0.099876      0.994197      0.032378     Biso  1.000000 C
   C464       1.0     0.129717      0.051897      0.118098     Biso  1.000000 C
   C465       1.0     0.138222      0.017025      0.143485     Biso  1.000000 C
   C466       1.0     0.057297      0.064321      0.128219     Biso  1.000000 C
   C467       1.0     0.259266      0.066506      0.137834     Biso  1.000000 C
   C468       1.0     0.084150      0.995594      0.108650     Biso  1.000000 C
   C469       1.0     0.150095      0.880881      0.289938     Biso  1.000000 C
   C470       1.0     0.165571      0.804129      0.319831     Biso  1.000000 C
   C471       1.0     0.292277      0.815124      0.279138     Biso  1.000000 C
   C472       1.0     0.633331      0.779476      0.373106     Biso  1.000000 C
   C473       1.0     0.528869      0.741599      0.389921     Biso  1.000000 C
   C474       1.0     0.589756      0.812689      0.507883     Biso  1.000000 C
   C475       1.0     0.572058      0.778301      0.489276     Biso  1.000000 C
   C476       1.0     0.648979      0.813120      0.556951     Biso  1.000000 C
   C477       1.0     0.456724      0.828790      0.497008     Biso  1.000000 C
   C478       1.0     0.523967      0.825139      0.544268     Biso  1.000000 C
   C479       1.0     0.401844      0.840466      0.545285     Biso  1.000000 C
   C480       1.0     0.424010      0.862511      0.389334     Biso  1.000000 C
   C481       1.0     0.478786      0.853089      0.441186     Biso  1.000000 C
   C482       1.0     0.387458      0.893472      0.409030     Biso  1.000000 C
   C483       1.0     0.352830      0.838906      0.295492     Biso  1.000000 C
   C484       1.0     0.376623      0.836342      0.369896     Biso  1.000000 C
   C485       1.0     0.409546      0.831102      0.246799     Biso  1.000000 C
   C486       1.0     0.221108      0.829292      0.304272     Biso  1.000000 C
   C487       1.0     0.311309      0.082931      0.189813     Biso  1.000000 C
   C488       1.0     0.339946      0.051209      0.031765     Biso  1.000000 C
   C489       1.0     0.281750      0.071989      0.062367     Biso  1.000000 C
   C490       1.0     0.314771      0.022439      0.990903     Biso  1.000000 C
   C491       1.0     0.908555      0.044912      0.400138     Biso  1.000000 C
   C492       1.0     0.997802      0.049643      0.310282     Biso  1.000000 C
   C493       1.0     0.016479      0.999389      0.471018     Biso  1.000000 C
   C494       1.0     0.016224      0.009044      0.394929     Biso  1.000000 C
   C495       1.0     0.051457      0.966525      0.473525     Biso  1.000000 C
   C496       1.0     0.129363      0.025131      0.525118     Biso  1.000000 C
   C497       1.0     0.047134      0.021514      0.525205     Biso  1.000000 C
   C498       1.0     0.152598      0.030813      0.599912     Biso  1.000000 C
   C499       1.0     0.205470      0.032345      0.414224     Biso  1.000000 C
   C500       1.0     0.162035      0.047991      0.474588     Biso  1.000000 C
   C501       1.0     0.224935      0.055321      0.354970     Biso  1.000000 C
   C502       1.0     0.319250      0.999720      0.388473     Biso  1.000000 C
   C503       1.0     0.276368      0.018239      0.444026     Biso  1.000000 C
   C504       1.0     0.275200      0.974209      0.357319     Biso  1.000000 C
   C505       1.0     0.669169      0.722704      0.012890     Biso  1.000000 C
   C506       1.0     0.984829      0.041136      0.383319     Biso  1.000000 C
   C507       1.0     0.563330      0.773063      0.411029     Biso  1.000000 C
   C508       1.0     0.896156      0.096747      0.461626     Biso  1.000000 C
   C509       1.0     0.883694      0.078031      0.395496     Biso  1.000000 C
   C510       1.0     0.443360      0.088442      0.022971     Biso  1.000000 C
   C511       1.0     0.389747      0.069883      0.980837     Biso  1.000000 C
   C512       1.0     0.474526      0.115692      0.982751     Biso  1.000000 C
   C513       1.0     0.552646      0.083531      0.101648     Biso  1.000000 C
   C514       1.0     0.498861      0.067319      0.049968     Biso  1.000000 C
   C515       1.0     0.539375      0.070412      0.174902     Biso  1.000000 C
   C516       1.0     0.680802      0.102316      0.119961     Biso  1.000000 C
   C517       1.0     0.635636      0.078490      0.081532     Biso  1.000000 C
   C518       1.0     0.681109      0.134235      0.081081     Biso  1.000000 C
   C519       1.0     0.774627      0.068913      0.187469     Biso  1.000000 C
   C520       1.0     0.759031      0.091766      0.129698     Biso  1.000000 C
   C521       1.0     0.848284      0.054313      0.178254     Biso  1.000000 C
   C522       1.0     0.768823      0.061534      0.321993     Biso  1.000000 C
   C523       1.0     0.773866      0.083873      0.258977     Biso  1.000000 C
   C524       1.0     0.688733      0.053278      0.333476     Biso  1.000000 C
   C525       1.0     0.802800      0.077049      0.383217     Biso  1.000000 C
   C526       1.0     0.591236      0.823482      0.297766     Biso  1.000000 C
   C527       1.0     0.182825      0.074211      0.155404     Biso  1.000000 C
   C528       1.0     0.628685      0.790677      0.300839     Biso  1.000000 C
   C529       1.0     0.116103      0.701751      0.003497     Biso  1.000000 C
   C530       1.0     0.003553      0.753680      0.068701     Biso  1.000000 C
   C531       1.0     0.079170      0.742139      0.090929     Biso  1.000000 C
   C532       1.0     0.952141      0.730416      0.097698     Biso  1.000000 C
   C533       1.0     0.028691      0.814642      0.053456     Biso  1.000000 C
   C534       1.0     0.990977      0.787551      0.088671     Biso  1.000000 C
   C535       1.0     0.994517      0.845096      0.069648     Biso  1.000000 C
   C536       1.0     0.965735      0.803478      0.934868     Biso  1.000000 C
   C537       1.0     0.034635      0.810155      0.974635     Biso  1.000000 C
   C538       1.0     0.929506      0.832216      0.908788     Biso  1.000000 C
   C539       1.0     0.903868      0.761858      0.858145     Biso  1.000000 C
   C540       1.0     0.974531      0.776432      0.883016     Biso  1.000000 C
   C541       1.0     0.863212      0.747960      0.922094     Biso  1.000000 C
   C542       1.0     0.985007      0.718282      0.791889     Biso  1.000000 C
   C543       1.0     0.916324      0.737897      0.796162     Biso  1.000000 C
   C544       1.0     0.170029      0.699554      0.119419     Biso  1.000000 C
   C545       1.0     0.988855      0.694819      0.845832     Biso  1.000000 C
   C546       1.0     0.101414      0.708295      0.079653     Biso  1.000000 C
   C547       1.0     0.265851      0.658534      0.129900     Biso  1.000000 C
   C548       1.0     0.735072      0.707927      0.039021     Biso  1.000000 C
   C549       1.0     0.702644      0.789551      0.266465     Biso  1.000000 C
   C550       1.0     0.584411      0.699969      0.110842     Biso  1.000000 C
   C551       1.0     0.616797      0.727261      0.071679     Biso  1.000000 C
   C552       1.0     0.535866      0.711668      0.168933     Biso  1.000000 C
   C553       1.0     0.547390      0.642751      0.091891     Biso  1.000000 C
   C554       1.0     0.550727      0.675031      0.061694     Biso  1.000000 C
   C555       1.0     0.620129      0.626958      0.089709     Biso  1.000000 C
   C556       1.0     0.427149      0.627794      0.030165     Biso  1.000000 C
   C557       1.0     0.500634      0.618176      0.054990     Biso  1.000000 C
   C558       1.0     0.396703      0.600217      0.993470     Biso  1.000000 C
   C559       1.0     0.309599      0.649571      0.067537     Biso  1.000000 C
   C560       1.0     0.384762      0.640462      0.088488     Biso  1.000000 C
   C561       1.0     0.310032      0.675802      0.011751     Biso  1.000000 C
   C562       1.0     0.187997      0.664293      0.115258     Biso  1.000000 C
   C563       1.0     0.145897      0.645693      0.166730     Biso  1.000000 C
   C564       1.0     0.998903      0.724836      0.655217     Biso  1.000000 C
   C565       1.0     0.683033      0.753344      0.978321     Biso  1.000000 C
   C566       1.0     0.991008      0.704373      0.590029     Biso  1.000000 C
   C567       1.0     0.888705      0.974387      0.983536     Biso  1.000000 C
   C568       1.0     0.908070      0.957432      0.916671     Biso  1.000000 C
   C569       1.0     0.926544      0.006503      0.985936     Biso  1.000000 C
   C570       1.0     0.757556      0.949627      0.992138     Biso  1.000000 C
   C571       1.0     0.808650      0.978027      0.988199     Biso  1.000000 C
   C572       1.0     0.679811      0.957775      0.978857     Biso  1.000000 C
   C573       1.0     0.757024      0.891174      0.037948     Biso  1.000000 C
   C574       1.0     0.768146      0.926667      0.050530     Biso  1.000000 C
   C575       1.0     0.817087      0.876496      0.998016     Biso  1.000000 C
   C576       1.0     0.720347      0.840387      0.105562     Biso  1.000000 C
   C577       1.0     0.744045      0.874251      0.106594     Biso  1.000000 C
   C578       1.0     0.644224      0.836685      0.078418     Biso  1.000000 C
   C579       1.0     0.705397      0.793216      0.190552     Biso  1.000000 C
   C580       1.0     0.731072      0.827087      0.174998     Biso  1.000000 C
   C581       1.0     0.999638      0.702281      0.717956     Biso  1.000000 C
   C582       1.0     0.998501      0.920646      0.975126     Biso  1.000000 C
   C583       1.0     0.995216      0.924988      0.846328     Biso  1.000000 C
   C584       1.0     0.758494      0.772440      0.157252     Biso  1.000000 C
   C585       1.0     0.119988      0.945177      0.837366     Biso  1.000000 C
   C586       1.0     0.984323      0.944257      0.912965     Biso  1.000000 C
   C587       1.0     0.047004      0.777910      0.609674     Biso  1.000000 C
   C588       1.0     0.060571      0.746524      0.650104     Biso  1.000000 C
   C589       1.0     0.989751      0.797189      0.643754     Biso  1.000000 C
   C590       1.0     0.128596      0.821367      0.569670     Biso  1.000000 C
   C591       1.0     0.130943      0.810389      0.495068     Biso  1.000000 C
   C592       1.0     0.215231      0.851553      0.653835     Biso  1.000000 C
   C593       1.0     0.119784      0.793714      0.612621     Biso  1.000000 C
   C594       1.0     0.282693      0.872671      0.647532     Biso  1.000000 C
   C595       1.0     0.153453      0.890688      0.747418     Biso  1.000000 C
   C596       1.0     0.153489      0.871450      0.678711     Biso  1.000000 C
   C597       1.0     0.180165      0.871768      0.809433     Biso  1.000000 C
   C598       1.0     0.072189      0.916592      0.835179     Biso  1.000000 C
   C599       1.0     0.082638      0.901539      0.765575     Biso  1.000000 C
   C600       1.0     0.195667      0.840642      0.584758     Biso  1.000000 C
   H1         1.0     0.667333      0.401367      0.094144     Biso  1.000000 H
   H2         1.0     0.704229      0.415559      0.980457     Biso  1.000000 H
   H3         1.0     0.784195      0.410101      0.960736     Biso  1.000000 H
   H4         1.0     0.735494      0.378766      0.954721     Biso  1.000000 H
   H5         1.0     0.690855      0.360402      0.083921     Biso  1.000000 H
   H6         1.0     0.808895      0.371474      0.058929     Biso  1.000000 H
   H7         1.0     0.751038      0.397065      0.321507     Biso  1.000000 H
   H8         1.0     0.609033      0.355730      0.175636     Biso  1.000000 H
   H9         1.0     0.633081      0.365288      0.257949     Biso  1.000000 H
   H10        1.0     0.807503      0.361248      0.177368     Biso  1.000000 H
   H11        1.0     0.745641      0.333692      0.186664     Biso  1.000000 H
   H12        1.0     0.718125      0.404993      0.198978     Biso  1.000000 H
   H13        1.0     0.842751      0.390878      0.295831     Biso  1.000000 H
   H14        1.0     0.914353      0.576678      0.056965     Biso  1.000000 H
   H15        1.0     0.599084      0.393215      0.201894     Biso  1.000000 H
   H16        1.0     0.873494      0.438785      0.001695     Biso  1.000000 H
   H17        1.0     0.916361      0.450582      0.151054     Biso  1.000000 H
   H18        1.0     0.773793      0.441348      0.088205     Biso  1.000000 H
   H19        1.0     0.813724      0.376570      0.371121     Biso  1.000000 H
   H20        1.0     0.792194      0.498638      0.931729     Biso  1.000000 H
   H21        1.0     0.753285      0.492684      0.009107     Biso  1.000000 H
   H22        1.0     0.731896      0.525766      0.960306     Biso  1.000000 H
   H23        1.0     0.926195      0.522858      0.051011     Biso  1.000000 H
   H24        1.0     0.898909      0.494241      0.999789     Biso  1.000000 H
   H25        1.0     0.791219      0.537705      0.063851     Biso  1.000000 H
   H26        1.0     0.887672      0.491153      0.224815     Biso  1.000000 H
   H27        1.0     0.945024      0.512422      0.179211     Biso  1.000000 H
   H28        1.0     0.861762      0.524218      0.184168     Biso  1.000000 H
   H29        1.0     0.966449      0.465598      0.086817     Biso  1.000000 H
   H30        1.0     0.819829      0.483443      0.107470     Biso  1.000000 H
   H31        1.0     0.913097      0.389363      0.008733     Biso  1.000000 H
   H32        1.0     0.982989      0.413210      0.040150     Biso  1.000000 H
   H33        1.0     0.937473      0.393132      0.102144     Biso  1.000000 H
   H34        1.0     0.823412      0.422034      0.141910     Biso  1.000000 H
   H35        1.0     0.878849      0.331447      0.262900     Biso  1.000000 H
   H36        1.0     0.952657      0.197875      0.492360     Biso  1.000000 H
   H37        1.0     0.731349      0.340600      0.303603     Biso  1.000000 H
   H38        1.0     0.015869      0.193605      0.681080     Biso  1.000000 H
   H39        1.0     0.972946      0.143589      0.566895     Biso  1.000000 H
   H40        1.0     0.888314      0.149314      0.567037     Biso  1.000000 H
   H41        1.0     0.907241      0.200025      0.636438     Biso  1.000000 H
   H42        1.0     0.818448      0.135940      0.657780     Biso  1.000000 H
   H43        1.0     0.848101      0.133987      0.745393     Biso  1.000000 H
   H44        1.0     0.837667      0.170124      0.694589     Biso  1.000000 H
   H45        1.0     0.931018      0.092630      0.625223     Biso  1.000000 H
   H46        1.0     0.912513      0.095285      0.710649     Biso  1.000000 H
   H47        1.0     0.957986      0.152802      0.707854     Biso  1.000000 H
   H48        1.0     0.130656      0.108756      0.662468     Biso  1.000000 H
   H49        1.0     0.080078      0.092626      0.594545     Biso  1.000000 H
   H50        1.0     0.071730      0.132358      0.622813     Biso  1.000000 H
   H51        1.0     0.092310      0.064386      0.714092     Biso  1.000000 H
   H52        1.0     0.786855      0.567247      0.962316     Biso  1.000000 H
   H53        1.0     0.017611      0.225721      0.625350     Biso  1.000000 H
   H54        1.0     0.811487      0.303573      0.262278     Biso  1.000000 H
   H55        1.0     0.051686      0.187371      0.602535     Biso  1.000000 H
   H56        1.0     0.864187      0.199144      0.515974     Biso  1.000000 H
   H57        1.0     0.791641      0.285712      0.438973     Biso  1.000000 H
   H58        1.0     0.740291      0.314867      0.400933     Biso  1.000000 H
   H59        1.0     0.763369      0.281801      0.356322     Biso  1.000000 H
   H60        1.0     0.949132      0.308197      0.334818     Biso  1.000000 H
   H61        1.0     0.896265      0.273568      0.337193     Biso  1.000000 H
   H62        1.0     0.862122      0.334820      0.394164     Biso  1.000000 H
   H63        1.0     0.044433      0.282937      0.479965     Biso  1.000000 H
   H64        1.0     0.040950      0.279809      0.389663     Biso  1.000000 H
   H65        1.0     0.029025      0.315935      0.424817     Biso  1.000000 H
   H66        1.0     0.948371      0.236289      0.423176     Biso  1.000000 H
   H67        1.0     0.861862      0.244596      0.439687     Biso  1.000000 H
   H68        1.0     0.917560      0.302197      0.471195     Biso  1.000000 H
   H69        1.0     0.874814      0.281157      0.581239     Biso  1.000000 H
   H70        1.0     0.809635      0.258716      0.541523     Biso  1.000000 H
   H71        1.0     0.856142      0.246522      0.616049     Biso  1.000000 H
   H72        1.0     0.974823      0.250969      0.538850     Biso  1.000000 H
   H73        1.0     0.878109      0.557401      0.943298     Biso  1.000000 H
   H74        1.0     0.196335      0.605990      0.994538     Biso  1.000000 H
   H75        1.0     0.923009      0.632319      0.018105     Biso  1.000000 H
   H76        1.0     0.450191      0.575733      0.685126     Biso  1.000000 H
   H77        1.0     0.387213      0.659108      0.729079     Biso  1.000000 H
   H78        1.0     0.437531      0.640332      0.675020     Biso  1.000000 H
   H79        1.0     0.361621      0.608010      0.793549     Biso  1.000000 H
   H80        1.0     0.457371      0.617673      0.856059     Biso  1.000000 H
   H81        1.0     0.505259      0.653495      0.882915     Biso  1.000000 H
   H82        1.0     0.421168      0.655638      0.867654     Biso  1.000000 H
   H83        1.0     0.546858      0.687404      0.807432     Biso  1.000000 H
   H84        1.0     0.457058      0.697421      0.778916     Biso  1.000000 H
   H85        1.0     0.529854      0.634932      0.762613     Biso  1.000000 H
   H86        1.0     0.469364      0.738942      0.713530     Biso  1.000000 H
   H87        1.0     0.558121      0.742238      0.704320     Biso  1.000000 H
   H88        1.0     0.509920      0.736787      0.634175     Biso  1.000000 H
   H89        1.0     0.615311      0.661826      0.679612     Biso  1.000000 H
   H90        1.0     0.635756      0.698514      0.715556     Biso  1.000000 H
   H91        1.0     0.413920      0.564917      0.762178     Biso  1.000000 H
   H92        1.0     0.497317      0.680845      0.662772     Biso  1.000000 H
   H93        1.0     0.480282      0.590355      0.761292     Biso  1.000000 H
   H94        1.0     0.340717      0.591020      0.644990     Biso  1.000000 H
   H95        1.0     0.024186      0.048929      0.670488     Biso  1.000000 H
   H96        1.0     0.224200      0.592336      0.909208     Biso  1.000000 H
   H97        1.0     0.110159      0.642211      0.837928     Biso  1.000000 H
   H98        1.0     0.045679      0.616841      0.838607     Biso  1.000000 H
   H99        1.0     0.092827      0.585057      0.926965     Biso  1.000000 H
   H100       1.0     0.035152      0.591064      0.746877     Biso  1.000000 H
   H101       1.0     0.090496      0.614766      0.706786     Biso  1.000000 H
   H102       1.0     0.105742      0.572172      0.704401     Biso  1.000000 H
   H103       1.0     0.238195      0.622849      0.810638     Biso  1.000000 H
   H104       1.0     0.196444      0.633732      0.743418     Biso  1.000000 H
   H105       1.0     0.154115      0.574857      0.809134     Biso  1.000000 H
   H106       1.0     0.287876      0.546631      0.694295     Biso  1.000000 H
   H107       1.0     0.285285      0.549956      0.780279     Biso  1.000000 H
   H108       1.0     0.210455      0.545021      0.736922     Biso  1.000000 H
   H109       1.0     0.306402      0.626367      0.658817     Biso  1.000000 H
   H110       1.0     0.217296      0.589515      0.668073     Biso  1.000000 H
   H111       1.0     0.936545      0.604628      0.958610     Biso  1.000000 H
   H112       1.0     0.547327      0.670550      0.553128     Biso  1.000000 H
   H113       1.0     0.601545      0.685587      0.501990     Biso  1.000000 H
   H114       1.0     0.706680      0.688842      0.210906     Biso  1.000000 H
   H115       1.0     0.716014      0.641423      0.300621     Biso  1.000000 H
   H116       1.0     0.839951      0.698764      0.147839     Biso  1.000000 H
   H117       1.0     0.862159      0.705946      0.236774     Biso  1.000000 H
   H118       1.0     0.912935      0.680748      0.192740     Biso  1.000000 H
   H119       1.0     0.754901      0.649008      0.132184     Biso  1.000000 H
   H120       1.0     0.745902      0.624053      0.201570     Biso  1.000000 H
   H121       1.0     0.842058      0.653873      0.265802     Biso  1.000000 H
   H122       1.0     0.848518      0.587596      0.229448     Biso  1.000000 H
   H123       1.0     0.921898      0.586049      0.175236     Biso  1.000000 H
   H124       1.0     0.909019      0.616941      0.234202     Biso  1.000000 H
   H125       1.0     0.766154      0.607661      0.068955     Biso  1.000000 H
   H126       1.0     0.790557      0.577304      0.116893     Biso  1.000000 H
   H127       1.0     0.878391      0.636299      0.118564     Biso  1.000000 H
   H128       1.0     0.852241      0.627651      0.957860     Biso  1.000000 H
   H129       1.0     0.752180      0.705339      0.277786     Biso  1.000000 H
   H130       1.0     0.542441      0.712613      0.541842     Biso  1.000000 H
   H131       1.0     0.606097      0.670990      0.269629     Biso  1.000000 H
   H132       1.0     0.611624      0.661705      0.359177     Biso  1.000000 H
   H133       1.0     0.686063      0.655142      0.582444     Biso  1.000000 H
   H134       1.0     0.726145      0.678357      0.644959     Biso  1.000000 H
   H135       1.0     0.645694      0.719790      0.610945     Biso  1.000000 H
   H136       1.0     0.824079      0.730349      0.526815     Biso  1.000000 H
   H137       1.0     0.762405      0.734894      0.589325     Biso  1.000000 H
   H138       1.0     0.828386      0.707234      0.599223     Biso  1.000000 H
   H139       1.0     0.790869      0.647606      0.538283     Biso  1.000000 H
   H140       1.0     0.828162      0.676008      0.492871     Biso  1.000000 H
   H141       1.0     0.706941      0.705395      0.500734     Biso  1.000000 H
   H142       1.0     0.762154      0.604443      0.465778     Biso  1.000000 H
   H143       1.0     0.755256      0.609160      0.380119     Biso  1.000000 H
   H144       1.0     0.832849      0.619589      0.422062     Biso  1.000000 H
   H145       1.0     0.808102      0.676439      0.368975     Biso  1.000000 H
   H146       1.0     0.734879      0.698238      0.391075     Biso  1.000000 H
   H147       1.0     0.687690      0.648929      0.451130     Biso  1.000000 H
   H148       1.0     0.619936      0.697138      0.324677     Biso  1.000000 H
   H149       1.0     0.034625      0.113637      0.735540     Biso  1.000000 H
   H150       1.0     0.633201      0.591646      0.443454     Biso  1.000000 H
   H151       1.0     0.980387      0.006980      0.752527     Biso  1.000000 H
   H152       1.0     0.988719      0.413671      0.845690     Biso  1.000000 H
   H153       1.0     0.973650      0.436694      0.915572     Biso  1.000000 H
   H154       1.0     0.984365      0.476002      0.746355     Biso  1.000000 H
   H155       1.0     0.032018      0.456790      0.802202     Biso  1.000000 H
   H156       1.0     0.880560      0.462526      0.833128     Biso  1.000000 H
   H157       1.0     0.958341      0.532699      0.766026     Biso  1.000000 H
   H158       1.0     0.910469      0.408032      0.891011     Biso  1.000000 H
   H159       1.0     0.881858      0.513145      0.793509     Biso  1.000000 H
   H160       1.0     0.054319      0.538261      0.856819     Biso  1.000000 H
   H161       1.0     0.084176      0.507158      0.803027     Biso  1.000000 H
   H162       1.0     0.959952      0.493877      0.889092     Biso  1.000000 H
   H163       1.0     0.214731      0.503577      0.932038     Biso  1.000000 H
   H164       1.0     0.197164      0.508178      0.845665     Biso  1.000000 H
   H165       1.0     0.175827      0.535544      0.896342     Biso  1.000000 H
   H166       1.0     0.917690      0.539969      0.842794     Biso  1.000000 H
   H167       1.0     0.808050      0.420479      0.822212     Biso  1.000000 H
   H168       1.0     0.921367      0.416247      0.736360     Biso  1.000000 H
   H169       1.0     0.890576      0.452377      0.713302     Biso  1.000000 H
   H170       1.0     0.753275      0.334155      0.521625     Biso  1.000000 H
   H171       1.0     0.754855      0.305827      0.589877     Biso  1.000000 H
   H172       1.0     0.681167      0.314730      0.554520     Biso  1.000000 H
   H173       1.0     0.772677      0.332408      0.698062     Biso  1.000000 H
   H174       1.0     0.683086      0.332179      0.702229     Biso  1.000000 H
   H175       1.0     0.766107      0.369896      0.602940     Biso  1.000000 H
   H176       1.0     0.664554      0.357771      0.803534     Biso  1.000000 H
   H177       1.0     0.757498      0.353066      0.830688     Biso  1.000000 H
   H178       1.0     0.708484      0.389205      0.840596     Biso  1.000000 H
   H179       1.0     0.808290      0.398453      0.678488     Biso  1.000000 H
   H180       1.0     0.842032      0.375018      0.744051     Biso  1.000000 H
   H181       1.0     0.694974      0.393454      0.723728     Biso  1.000000 H
   H182       1.0     0.772176      0.474992      0.774258     Biso  1.000000 H
   H183       1.0     0.769095      0.460404      0.697283     Biso  1.000000 H
   H184       1.0     0.708954      0.444950      0.759859     Biso  1.000000 H
   H185       1.0     0.020062      0.508011      0.980391     Biso  1.000000 H
   H186       1.0     0.087086      0.535227      0.980943     Biso  1.000000 H
   H187       1.0     0.100106      0.475212      0.909000     Biso  1.000000 H
   H188       1.0     0.147076      0.450653      0.992660     Biso  1.000000 H
   H189       1.0     0.224898      0.585326      0.315041     Biso  1.000000 H
   H190       1.0     0.433443      0.554165      0.266961     Biso  1.000000 H
   H191       1.0     0.391817      0.551536      0.343112     Biso  1.000000 H
   H192       1.0     0.333704      0.595619      0.235078     Biso  1.000000 H
   H193       1.0     0.497552      0.635771      0.298859     Biso  1.000000 H
   H194       1.0     0.505660      0.603199      0.244713     Biso  1.000000 H
   H195       1.0     0.420975      0.624716      0.259554     Biso  1.000000 H
   H196       1.0     0.557380      0.583183      0.345907     Biso  1.000000 H
   H197       1.0     0.502333      0.552849      0.375157     Biso  1.000000 H
   H198       1.0     0.415558      0.607918      0.363830     Biso  1.000000 H
   H199       1.0     0.417419      0.591831      0.488664     Biso  1.000000 H
   H200       1.0     0.449033      0.555877      0.483423     Biso  1.000000 H
   H201       1.0     0.480475      0.580776      0.546202     Biso  1.000000 H
   H202       1.0     0.594699      0.593247      0.525286     Biso  1.000000 H
   H203       1.0     0.213511      0.632516      0.936964     Biso  1.000000 H
   H204       1.0     0.284023      0.612092      0.344180     Biso  1.000000 H
   H205       1.0     0.657155      0.360724      0.481418     Biso  1.000000 H
   H206       1.0     0.289821      0.573138      0.379714     Biso  1.000000 H
   H207       1.0     0.280097      0.529748      0.273898     Biso  1.000000 H
   H208       1.0     0.139317      0.448434      0.079051     Biso  1.000000 H
   H209       1.0     0.062652      0.451342      0.029421     Biso  1.000000 H
   H210       1.0     0.094610      0.490365      0.143227     Biso  1.000000 H
   H211       1.0     0.036862      0.512788      0.102524     Biso  1.000000 H
   H212       1.0     0.174889      0.502349      0.038682     Biso  1.000000 H
   H213       1.0     0.029385      0.563019      0.130913     Biso  1.000000 H
   H214       1.0     0.048829      0.542346      0.205053     Biso  1.000000 H
   H215       1.0     0.091664      0.578050      0.183601     Biso  1.000000 H
   H216       1.0     0.218501      0.507545      0.144371     Biso  1.000000 H
   H217       1.0     0.173919      0.516293      0.220603     Biso  1.000000 H
   H218       1.0     0.136950      0.550023      0.085562     Biso  1.000000 H
   H219       1.0     0.322671      0.579312      0.134680     Biso  1.000000 H
   H220       1.0     0.304953      0.542276      0.097643     Biso  1.000000 H
   H221       1.0     0.245844      0.571734      0.083835     Biso  1.000000 H
   H222       1.0     0.342579      0.535556      0.218658     Biso  1.000000 H
   H223       1.0     0.214522      0.574165      0.203529     Biso  1.000000 H
   H224       1.0     0.642545      0.391075      0.628641     Biso  1.000000 H
   H225       1.0     0.611666      0.352468      0.614803     Biso  1.000000 H
   H226       1.0     0.732146      0.404668      0.516688     Biso  1.000000 H
   H227       1.0     0.187382      0.196800      0.866652     Biso  1.000000 H
   H228       1.0     0.118606      0.176661      0.815503     Biso  1.000000 H
   H229       1.0     0.188977      0.131153      0.822323     Biso  1.000000 H
   H230       1.0     0.211122      0.143216      0.723798     Biso  1.000000 H
   H231       1.0     0.146048      0.170189      0.686235     Biso  1.000000 H
   H232       1.0     0.237173      0.174653      0.671622     Biso  1.000000 H
   H233       1.0     0.188133      0.234503      0.795691     Biso  1.000000 H
   H234       1.0     0.143916      0.223221      0.719307     Biso  1.000000 H
   H235       1.0     0.266701      0.188951      0.768000     Biso  1.000000 H
   H236       1.0     0.284956      0.276969      0.775965     Biso  1.000000 H
   H237       1.0     0.331446      0.241272      0.779008     Biso  1.000000 H
   H238       1.0     0.337099      0.268479      0.708249     Biso  1.000000 H
   H239       1.0     0.236547      0.286789      0.652215     Biso  1.000000 H
   H240       1.0     0.165419      0.266143      0.652078     Biso  1.000000 H
   H241       1.0     0.270335      0.221238      0.669293     Biso  1.000000 H
   H242       1.0     0.285660      0.171192      0.907051     Biso  1.000000 H
   H243       1.0     0.182986      0.270427      0.479464     Biso  1.000000 H
   H244       1.0     0.311278      0.151058      0.828197     Biso  1.000000 H
   H245       1.0     0.056322      0.135094      0.857989     Biso  1.000000 H
   H246       1.0     0.918728      0.024415      0.806663     Biso  1.000000 H
   H247       1.0     0.089953      0.030932      0.801676     Biso  1.000000 H
   H248       1.0     0.041263      0.037050      0.872692     Biso  1.000000 H
   H249       1.0     0.976924      0.074938      0.801453     Biso  1.000000 H
   H250       1.0     0.210491      0.051624      0.836576     Biso  1.000000 H
   H251       1.0     0.221368      0.078325      0.901608     Biso  1.000000 H
   H252       1.0     0.180014      0.042339      0.916139     Biso  1.000000 H
   H253       1.0     0.087930      0.083058      0.962412     Biso  1.000000 H
   H254       1.0     0.017277      0.088942      0.901917     Biso  1.000000 H
   H255       1.0     0.116478      0.091699      0.812724     Biso  1.000000 H
   H256       1.0     0.975908      0.132337      0.967809     Biso  1.000000 H
   H257       1.0     0.053443      0.143212      0.009685     Biso  1.000000 H
   H258       1.0     0.020552      0.168674      0.956787     Biso  1.000000 H
   H259       1.0     0.181797      0.120316      0.946377     Biso  1.000000 H
   H260       1.0     0.165169      0.156351      0.961562     Biso  1.000000 H
   H261       1.0     0.291114      0.129752      0.900332     Biso  1.000000 H
   H262       1.0     0.925100      0.035982      0.720963     Biso  1.000000 H
   H263       1.0     0.130948      0.271761      0.554809     Biso  1.000000 H
   H264       1.0     0.342761      0.259828      0.595857     Biso  1.000000 H
   H265       1.0     0.396119      0.321112      0.348134     Biso  1.000000 H
   H266       1.0     0.625124      0.296063      0.359694     Biso  1.000000 H
   H267       1.0     0.603542      0.288075      0.447449     Biso  1.000000 H
   H268       1.0     0.575865      0.262068      0.380883     Biso  1.000000 H
   H269       1.0     0.487885      0.356466      0.376260     Biso  1.000000 H
   H270       1.0     0.578910      0.349848      0.385060     Biso  1.000000 H
   H271       1.0     0.494340      0.296234      0.434214     Biso  1.000000 H
   H272       1.0     0.424292      0.327187      0.493043     Biso  1.000000 H
   H273       1.0     0.444669      0.352908      0.556358     Biso  1.000000 H
   H274       1.0     0.414833      0.367433      0.481292     Biso  1.000000 H
   H275       1.0     0.531518      0.393391      0.544946     Biso  1.000000 H
   H276       1.0     0.552755      0.397663      0.458127     Biso  1.000000 H
   H277       1.0     0.543177      0.334780      0.521103     Biso  1.000000 H
   H278       1.0     0.667359      0.415527      0.451495     Biso  1.000000 H
   H279       1.0     0.661900      0.425347      0.542607     Biso  1.000000 H
   H280       1.0     0.494642      0.274442      0.302945     Biso  1.000000 H
   H281       1.0     0.194103      0.301259      0.537579     Biso  1.000000 H
   H282       1.0     0.519118      0.308735      0.276774     Biso  1.000000 H
   H283       1.0     0.356856      0.336435      0.237660     Biso  1.000000 H
   H284       1.0     0.320888      0.290859      0.546976     Biso  1.000000 H
   H285       1.0     0.224690      0.232631      0.561103     Biso  1.000000 H
   H286       1.0     0.444763      0.263901      0.506288     Biso  1.000000 H
   H287       1.0     0.427764      0.224907      0.534708     Biso  1.000000 H
   H288       1.0     0.449669      0.236173      0.447474     Biso  1.000000 H
   H289       1.0     0.370188      0.290452      0.436437     Biso  1.000000 H
   H290       1.0     0.283934      0.283099      0.431859     Biso  1.000000 H
   H291       1.0     0.309839      0.229392      0.472917     Biso  1.000000 H
   H292       1.0     0.276045      0.216357      0.364387     Biso  1.000000 H
   H293       1.0     0.239112      0.248859      0.332636     Biso  1.000000 H
   H294       1.0     0.290859      0.227481      0.282191     Biso  1.000000 H
   H295       1.0     0.309317      0.291816      0.278561     Biso  1.000000 H
   H296       1.0     0.374438      0.266931      0.252333     Biso  1.000000 H
   H297       1.0     0.392876      0.242544      0.358818     Biso  1.000000 H
   H298       1.0     0.434220      0.321312      0.203058     Biso  1.000000 H
   H299       1.0     0.440930      0.352162      0.256652     Biso  1.000000 H
   H300       1.0     0.598880      0.559046      0.472254     Biso  1.000000 H
   H301       1.0     0.733643      0.679550      0.779818     Biso  1.000000 H
   H302       1.0     0.533275      0.886928      0.818217     Biso  1.000000 H
   H303       1.0     0.446906      0.422407      0.421029     Biso  1.000000 H
   H304       1.0     0.527059      0.439879      0.267290     Biso  1.000000 H
   H305       1.0     0.519233      0.411465      0.328833     Biso  1.000000 H
   H306       1.0     0.486081      0.408231      0.241124     Biso  1.000000 H
   H307       1.0     0.434047      0.439372      0.188274     Biso  1.000000 H
   H308       1.0     0.394899      0.471088      0.225473     Biso  1.000000 H
   H309       1.0     0.356944      0.467729      0.346033     Biso  1.000000 H
   H310       1.0     0.382635      0.414412      0.303644     Biso  1.000000 H
   H311       1.0     0.269006      0.431268      0.286424     Biso  1.000000 H
   H312       1.0     0.252737      0.466388      0.245022     Biso  1.000000 H
   H313       1.0     0.306840      0.472265      0.122999     Biso  1.000000 H
   H314       1.0     0.262921      0.439149      0.101106     Biso  1.000000 H
   H315       1.0     0.323844      0.406670      0.194157     Biso  1.000000 H
   H316       1.0     0.390216      0.447389      0.957825     Biso  1.000000 H
   H317       1.0     0.216535      0.433832      0.218081     Biso  1.000000 H
   H318       1.0     0.450921      0.474394      0.342109     Biso  1.000000 H
   H319       1.0     0.331733      0.406142      0.401121     Biso  1.000000 H
   H320       1.0     0.299030      0.443748      0.429009     Biso  1.000000 H
   H321       1.0     0.548552      0.508861      0.697242     Biso  1.000000 H
   H322       1.0     0.465547      0.473252      0.769332     Biso  1.000000 H
   H323       1.0     0.424526      0.520282      0.651142     Biso  1.000000 H
   H324       1.0     0.388141      0.494005      0.590814     Biso  1.000000 H
   H325       1.0     0.387995      0.481919      0.674372     Biso  1.000000 H
   H326       1.0     0.584374      0.488018      0.557898     Biso  1.000000 H
   H327       1.0     0.512225      0.511685      0.547235     Biso  1.000000 H
   H328       1.0     0.470798      0.453839      0.626180     Biso  1.000000 H
   H329       1.0     0.555920      0.493182      0.410817     Biso  1.000000 H
   H330       1.0     0.605784      0.468992      0.458836     Biso  1.000000 H
   H331       1.0     0.557396      0.449727      0.401870     Biso  1.000000 H
   H332       1.0     0.406866      0.487972      0.464026     Biso  1.000000 H
   H333       1.0     0.400280      0.454937      0.518410     Biso  1.000000 H
   H334       1.0     0.517319      0.441181      0.511129     Biso  1.000000 H
   H335       1.0     0.342339      0.415068      0.487722     Biso  1.000000 H
   H336       1.0     0.296959      0.450920      0.982685     Biso  1.000000 H
   H337       1.0     0.368436      0.479350      0.009991     Biso  1.000000 H
   H338       1.0     0.326107      0.399695      0.007239     Biso  1.000000 H
   H339       1.0     0.336249      0.388679      0.085673     Biso  1.000000 H
   H340       1.0     0.449654      0.302957      0.680665     Biso  1.000000 H
   H341       1.0     0.531669      0.324075      0.678518     Biso  1.000000 H
   H342       1.0     0.531773      0.298875      0.624854     Biso  1.000000 H
   H343       1.0     0.480778      0.243142      0.689455     Biso  1.000000 H
   H344       1.0     0.543933      0.229385      0.743900     Biso  1.000000 H
   H345       1.0     0.600476      0.287248      0.732254     Biso  1.000000 H
   H346       1.0     0.703677      0.232487      0.649506     Biso  1.000000 H
   H347       1.0     0.683544      0.267320      0.689025     Biso  1.000000 H
   H348       1.0     0.672761      0.231035      0.735859     Biso  1.000000 H
   H349       1.0     0.525714      0.202997      0.609142     Biso  1.000000 H
   H350       1.0     0.584056      0.187188      0.666681     Biso  1.000000 H
   H351       1.0     0.590235      0.253133      0.609775     Biso  1.000000 H
   H352       1.0     0.626318      0.207901      0.452791     Biso  1.000000 H
   H353       1.0     0.564748      0.231111      0.502000     Biso  1.000000 H
   H354       1.0     0.658286      0.231538      0.507747     Biso  1.000000 H
   H355       1.0     0.555811      0.328352      0.809731     Biso  1.000000 H
   H356       1.0     0.591977      0.474825      0.677445     Biso  1.000000 H
   H357       1.0     0.521287      0.261160      0.827984     Biso  1.000000 H
   H358       1.0     0.625525      0.316352      0.916762     Biso  1.000000 H
   H359       1.0     0.417018      0.442140      0.087445     Biso  1.000000 H
   H360       1.0     0.461662      0.361375      0.125738     Biso  1.000000 H
   H361       1.0     0.532081      0.375762      0.078144     Biso  1.000000 H
   H362       1.0     0.483161      0.401814      0.124959     Biso  1.000000 H
   H363       1.0     0.387203      0.357266      0.956630     Biso  1.000000 H
   H364       1.0     0.432869      0.335610      0.017821     Biso  1.000000 H
   H365       1.0     0.459378      0.405549      0.005186     Biso  1.000000 H
   H366       1.0     0.534161      0.377404      0.842404     Biso  1.000000 H
   H367       1.0     0.451025      0.394309      0.880550     Biso  1.000000 H
   H368       1.0     0.539657      0.398634      0.914757     Biso  1.000000 H
   H369       1.0     0.435554      0.329865      0.860475     Biso  1.000000 H
   H370       1.0     0.462543      0.306247      0.928681     Biso  1.000000 H
   H371       1.0     0.541764      0.347355      0.960159     Biso  1.000000 H
   H372       1.0     0.593677      0.277296      0.919111     Biso  1.000000 H
   H373       1.0     0.642169      0.290517      0.845589     Biso  1.000000 H
   H374       1.0     0.454863      0.286757      0.797392     Biso  1.000000 H
   H375       1.0     0.541487      0.422671      0.802030     Biso  1.000000 H
   H376       1.0     0.574712      0.426206      0.726583     Biso  1.000000 H
   H377       1.0     0.478801      0.422877      0.737120     Biso  1.000000 H
   H378       1.0     0.889450      0.600725      0.627537     Biso  1.000000 H
   H379       1.0     0.881577      0.589283      0.538830     Biso  1.000000 H
   H380       1.0     0.944492      0.544502      0.645380     Biso  1.000000 H
   H381       1.0     0.938209      0.540458      0.555477     Biso  1.000000 H
   H382       1.0     0.813578      0.540550      0.560444     Biso  1.000000 H
   H383       1.0     0.983291      0.461224      0.623902     Biso  1.000000 H
   H384       1.0     0.013544      0.484089      0.561376     Biso  1.000000 H
   H385       1.0     0.030881      0.494741      0.640489     Biso  1.000000 H
   H386       1.0     0.809432      0.483221      0.586601     Biso  1.000000 H
   H387       1.0     0.871831      0.453269      0.584900     Biso  1.000000 H
   H388       1.0     0.896933      0.496835      0.662033     Biso  1.000000 H
   H389       1.0     0.964024      0.453830      0.479828     Biso  1.000000 H
   H390       1.0     0.892766      0.432368      0.451449     Biso  1.000000 H
   H391       1.0     0.917930      0.460779      0.406078     Biso  1.000000 H
   H392       1.0     0.758202      0.494512      0.488071     Biso  1.000000 H
   H393       1.0     0.809766      0.596291      0.585330     Biso  1.000000 H
   H394       1.0     0.773881      0.459813      0.446877     Biso  1.000000 H
   H395       1.0     0.723058      0.584420      0.641086     Biso  1.000000 H
   H396       1.0     0.794363      0.521621      0.677977     Biso  1.000000 H
   H397       1.0     0.746543      0.680493      0.869543     Biso  1.000000 H
   H398       1.0     0.506009      0.616700      0.438229     Biso  1.000000 H
   H399       1.0     0.665060      0.669204      0.831569     Biso  1.000000 H
   H400       1.0     0.733987      0.618790      0.726421     Biso  1.000000 H
   H401       1.0     0.655466      0.624790      0.767818     Biso  1.000000 H
   H402       1.0     0.802158      0.631144      0.820166     Biso  1.000000 H
   H403       1.0     0.616275      0.578900      0.836080     Biso  1.000000 H
   H404       1.0     0.672761      0.546891      0.855533     Biso  1.000000 H
   H405       1.0     0.682809      0.582599      0.891699     Biso  1.000000 H
   H406       1.0     0.628430      0.561191      0.717794     Biso  1.000000 H
   H407       1.0     0.691507      0.534506      0.742735     Biso  1.000000 H
   H408       1.0     0.767822      0.572673      0.801377     Biso  1.000000 H
   H409       1.0     0.617162      0.552669      0.601699     Biso  1.000000 H
   H410       1.0     0.699901      0.549523      0.559827     Biso  1.000000 H
   H411       1.0     0.676396      0.519668      0.614423     Biso  1.000000 H
   H412       1.0     0.822880      0.557992      0.708614     Biso  1.000000 H
   H413       1.0     0.542885      0.162685      0.531245     Biso  1.000000 H
   H414       1.0     0.891228      0.502595      0.487089     Biso  1.000000 H
   H415       1.0     0.743926      0.542329      0.437545     Biso  1.000000 H
   H416       1.0     0.640089      0.500151      0.073820     Biso  1.000000 H
   H417       1.0     0.595846      0.534129      0.049623     Biso  1.000000 H
   H418       1.0     0.565092      0.492635      0.161378     Biso  1.000000 H
   H419       1.0     0.539433      0.457145      0.098427     Biso  1.000000 H
   H420       1.0     0.533635      0.440829      0.014282     Biso  1.000000 H
   H421       1.0     0.615446      0.449129      0.051952     Biso  1.000000 H
   H422       1.0     0.622350      0.476540      0.941476     Biso  1.000000 H
   H423       1.0     0.603855      0.517609      0.939623     Biso  1.000000 H
   H424       1.0     0.494366      0.494869      0.014748     Biso  1.000000 H
   H425       1.0     0.463560      0.526822      0.851943     Biso  1.000000 H
   H426       1.0     0.420063      0.495473      0.865041     Biso  1.000000 H
   H427       1.0     0.443856      0.518061      0.934615     Biso  1.000000 H
   H428       1.0     0.613986      0.472013      0.824617     Biso  1.000000 H
   H429       1.0     0.577565      0.507622      0.802344     Biso  1.000000 H
   H430       1.0     0.508882      0.462841      0.899922     Biso  1.000000 H
   H431       1.0     0.445435      0.529428      0.097319     Biso  1.000000 H
   H432       1.0     0.781098      0.550148      0.355218     Biso  1.000000 H
   H433       1.0     0.448527      0.517259      0.184390     Biso  1.000000 H
   H434       1.0     0.686444      0.533084      0.168244     Biso  1.000000 H
   H435       1.0     0.830722      0.545832      0.422579     Biso  1.000000 H
   H436       1.0     0.676218      0.490150      0.375045     Biso  1.000000 H
   H437       1.0     0.735864      0.463578      0.350261     Biso  1.000000 H
   H438       1.0     0.840718      0.495983      0.361441     Biso  1.000000 H
   H439       1.0     0.725498      0.483079      0.173560     Biso  1.000000 H
   H440       1.0     0.762624      0.459327      0.235306     Biso  1.000000 H
   H441       1.0     0.675254      0.458706      0.235341     Biso  1.000000 H
   H442       1.0     0.645141      0.533797      0.319401     Biso  1.000000 H
   H443       1.0     0.604882      0.501186      0.274475     Biso  1.000000 H
   H444       1.0     0.757404      0.515795      0.263143     Biso  1.000000 H
   H445       1.0     0.650011      0.585715      0.256025     Biso  1.000000 H
   H446       1.0     0.731990      0.571107      0.250713     Biso  1.000000 H
   H447       1.0     0.696356      0.581402      0.176396     Biso  1.000000 H
   H448       1.0     0.572074      0.563100      0.149935     Biso  1.000000 H
   H449       1.0     0.538948      0.547607      0.219185     Biso  1.000000 H
   H450       1.0     0.443574      0.489897      0.122371     Biso  1.000000 H
   H451       1.0     0.604126      0.149529      0.590165     Biso  1.000000 H
   H452       1.0     0.679191      0.193072      0.581452     Biso  1.000000 H
   H453       1.0     0.737220      0.147592      0.538182     Biso  1.000000 H
   H454       1.0     0.047134      0.166396      0.467074     Biso  1.000000 H
   H455       1.0     0.099845      0.133521      0.467773     Biso  1.000000 H
   H456       1.0     0.130635      0.166767      0.497656     Biso  1.000000 H
   H457       1.0     0.207332      0.155934      0.318621     Biso  1.000000 H
   H458       1.0     0.190458      0.122964      0.365602     Biso  1.000000 H
   H459       1.0     0.131433      0.187839      0.377597     Biso  1.000000 H
   H460       1.0     0.334387      0.171831      0.336610     Biso  1.000000 H
   H461       1.0     0.377003      0.152478      0.397536     Biso  1.000000 H
   H462       1.0     0.322843      0.131879      0.341572     Biso  1.000000 H
   H463       1.0     0.255506      0.105671      0.456694     Biso  1.000000 H
   H464       1.0     0.214720      0.132877      0.505899     Biso  1.000000 H
   H465       1.0     0.252007      0.175841      0.439707     Biso  1.000000 H
   H466       1.0     0.290316      0.167406      0.580971     Biso  1.000000 H
   H467       1.0     0.380236      0.161522      0.594160     Biso  1.000000 H
   H468       1.0     0.355432      0.181325      0.521347     Biso  1.000000 H
   H469       1.0     0.969995      0.178188      0.382402     Biso  1.000000 H
   H470       1.0     0.308645      0.087399      0.556055     Biso  1.000000 H
   H471       1.0     0.047974      0.133611      0.340626     Biso  1.000000 H
   H472       1.0     0.038614      0.209729      0.255731     Biso  1.000000 H
   H473       1.0     0.824329      0.254549      0.175120     Biso  1.000000 H
   H474       1.0     0.912372      0.188390      0.070949     Biso  1.000000 H
   H475       1.0     0.913133      0.153845      0.128650     Biso  1.000000 H
   H476       1.0     0.844190      0.160466      0.069015     Biso  1.000000 H
   H477       1.0     0.819908      0.152258      0.212076     Biso  1.000000 H
   H478       1.0     0.767593      0.184767      0.227691     Biso  1.000000 H
   H479       1.0     0.883480      0.212481      0.167626     Biso  1.000000 H
   H480       1.0     0.854197      0.184918      0.391931     Biso  1.000000 H
   H481       1.0     0.782605      0.181964      0.345198     Biso  1.000000 H
   H482       1.0     0.831103      0.146923      0.353142     Biso  1.000000 H
   H483       1.0     0.956453      0.169396      0.231605     Biso  1.000000 H
   H484       1.0     0.936504      0.140851      0.293659     Biso  1.000000 H
   H485       1.0     0.882979      0.208079      0.285872     Biso  1.000000 H
   H486       1.0     0.973671      0.225774      0.318317     Biso  1.000000 H
   H487       1.0     0.056989      0.220656      0.337046     Biso  1.000000 H
   H488       1.0     0.081621      0.156989      0.277822     Biso  1.000000 H
   H489       1.0     0.734649      0.199295      0.120407     Biso  1.000000 H
   H490       1.0     0.263739      0.113084      0.608687     Biso  1.000000 H
   H491       1.0     0.481466      0.083211      0.630636     Biso  1.000000 H
   H492       1.0     0.361893      0.996585      0.587603     Biso  1.000000 H
   H493       1.0     0.493427      0.962269      0.627684     Biso  1.000000 H
   H494       1.0     0.445462      0.926436      0.628058     Biso  1.000000 H
   H495       1.0     0.363316      0.950116      0.698680     Biso  1.000000 H
   H496       1.0     0.581757      0.921253      0.643041     Biso  1.000000 H
   H497       1.0     0.606775      0.908894      0.721520     Biso  1.000000 H
   H498       1.0     0.540976      0.888980      0.684199     Biso  1.000000 H
   H499       1.0     0.432723      0.896060      0.735490     Biso  1.000000 H
   H500       1.0     0.413138      0.928395      0.778349     Biso  1.000000 H
   H501       1.0     0.526361      0.952039      0.744588     Biso  1.000000 H
   H502       1.0     0.530094      0.915309      0.927061     Biso  1.000000 H
   H503       1.0     0.577189      0.934032      0.860540     Biso  1.000000 H
   H504       1.0     0.494189      0.946681      0.878105     Biso  1.000000 H
   H505       1.0     0.424683      0.863764      0.844784     Biso  1.000000 H
   H506       1.0     0.391004      0.897999      0.883325     Biso  1.000000 H
   H507       1.0     0.293909      0.974415      0.623446     Biso  1.000000 H
   H508       1.0     0.377676      0.128253      0.497144     Biso  1.000000 H
   H509       1.0     0.355901      0.957868      0.570394     Biso  1.000000 H
   H510       1.0     0.438229      0.009746      0.693855     Biso  1.000000 H
   H511       1.0     0.420704      0.059336      0.586783     Biso  1.000000 H
   H512       1.0     0.454440      0.095482      0.556526     Biso  1.000000 H
   H513       1.0     0.316737      0.058335      0.671941     Biso  1.000000 H
   H514       1.0     0.305636      0.090626      0.722806     Biso  1.000000 H
   H515       1.0     0.391515      0.120696      0.667744     Biso  1.000000 H
   H516       1.0     0.458544      0.106451      0.772785     Biso  1.000000 H
   H517       1.0     0.371429      0.111898      0.794886     Biso  1.000000 H
   H518       1.0     0.423343      0.086223      0.843467     Biso  1.000000 H
   H519       1.0     0.318739      0.050398      0.825098     Biso  1.000000 H
   H520       1.0     0.398737      0.035368      0.833290     Biso  1.000000 H
   H521       1.0     0.443089      0.055743      0.723257     Biso  1.000000 H
   H522       1.0     0.291250      0.965691      0.780501     Biso  1.000000 H
   H523       1.0     0.330153      0.984180      0.850222     Biso  1.000000 H
   H524       1.0     0.252534      0.001045      0.816562     Biso  1.000000 H
   H525       1.0     0.441212      0.983059      0.762137     Biso  1.000000 H
   H526       1.0     0.309521      0.015964      0.717940     Biso  1.000000 H
   H527       1.0     0.085370      0.623613      0.956761     Biso  1.000000 H
   H528       1.0     0.798435      0.214135      0.068286     Biso  1.000000 H
   H529       1.0     0.755934      0.233280      0.258794     Biso  1.000000 H
   H530       1.0     0.402334      0.156801      0.234709     Biso  1.000000 H
   H531       1.0     0.500383      0.170518      0.079395     Biso  1.000000 H
   H532       1.0     0.564107      0.190508      0.109283     Biso  1.000000 H
   H533       1.0     0.483296      0.207607      0.212127     Biso  1.000000 H
   H534       1.0     0.483082      0.253710      0.170629     Biso  1.000000 H
   H535       1.0     0.565869      0.246765      0.133384     Biso  1.000000 H
   H536       1.0     0.500967      0.270336      0.088747     Biso  1.000000 H
   H537       1.0     0.555811      0.221138      0.004345     Biso  1.000000 H
   H538       1.0     0.495132      0.248713      0.987804     Biso  1.000000 H
   H539       1.0     0.424996      0.221059      0.087375     Biso  1.000000 H
   H540       1.0     0.516182      0.213097      0.862110     Biso  1.000000 H
   H541       1.0     0.538400      0.178978      0.905684     Biso  1.000000 H
   H542       1.0     0.457543      0.181964      0.859153     Biso  1.000000 H
   H543       1.0     0.355589      0.212073      0.900049     Biso  1.000000 H
   H544       1.0     0.410489      0.241613      0.887684     Biso  1.000000 H
   H545       1.0     0.393851      0.156166      0.153166     Biso  1.000000 H
   H546       1.0     0.438052      0.187346      0.990027     Biso  1.000000 H
   H547       1.0     0.368869      0.189301      0.193930     Biso  1.000000 H
   H548       1.0     0.589104      0.170383      0.219615     Biso  1.000000 H
   H549       1.0     0.700365      0.112660      0.574956     Biso  1.000000 H
   H550       1.0     0.728184      0.112099      0.493398     Biso  1.000000 H
   H551       1.0     0.568461      0.102256      0.493924     Biso  1.000000 H
   H552       1.0     0.627147      0.097667      0.434396     Biso  1.000000 H
   H553       1.0     0.657645      0.154357      0.450831     Biso  1.000000 H
   H554       1.0     0.453606      0.094757      0.420447     Biso  1.000000 H
   H555       1.0     0.466386      0.100660      0.335816     Biso  1.000000 H
   H556       1.0     0.519222      0.078446      0.378483     Biso  1.000000 H
   H557       1.0     0.574733      0.118431      0.305279     Biso  1.000000 H
   H558       1.0     0.624404      0.148419      0.338023     Biso  1.000000 H
   H559       1.0     0.513987      0.141766      0.427935     Biso  1.000000 H
   H560       1.0     0.531982      0.193640      0.391217     Biso  1.000000 H
   H561       1.0     0.588890      0.198954      0.322879     Biso  1.000000 H
   H562       1.0     0.503486      0.212497      0.315588     Biso  1.000000 H
   H563       1.0     0.534495      0.140501      0.203352     Biso  1.000000 H
   H564       1.0     0.467075      0.154688      0.317781     Biso  1.000000 H
   H565       1.0     0.719387      0.271129      0.230420     Biso  1.000000 H
   H566       1.0     0.269366      0.284239      0.979399     Biso  1.000000 H
   H567       1.0     0.274507      0.265534      0.901694     Biso  1.000000 H
   H568       1.0     0.010681      0.298634      0.025593     Biso  1.000000 H
   H569       1.0     0.991962      0.228667      0.044580     Biso  1.000000 H
   H570       1.0     0.949383      0.292655      0.205165     Biso  1.000000 H
   H571       1.0     0.024786      0.295238      0.156386     Biso  1.000000 H
   H572       1.0     0.956464      0.323675      0.148158     Biso  1.000000 H
   H573       1.0     0.875820      0.318379      0.052869     Biso  1.000000 H
   H574       1.0     0.839445      0.310542      0.128660     Biso  1.000000 H
   H575       1.0     0.920157      0.256492      0.118123     Biso  1.000000 H
   H576       1.0     0.803097      0.301576      0.948979     Biso  1.000000 H
   H577       1.0     0.723183      0.284700      0.972467     Biso  1.000000 H
   H578       1.0     0.750569      0.317387      0.019786     Biso  1.000000 H
   H579       1.0     0.710002      0.254583      0.071724     Biso  1.000000 H
   H580       1.0     0.729242      0.289240      0.123227     Biso  1.000000 H
   H581       1.0     0.828209      0.259909      0.025674     Biso  1.000000 H
   H582       1.0     0.679420      0.235701      0.213068     Biso  1.000000 H
   H583       1.0     0.944622      0.273413      0.995211     Biso  1.000000 H
   H584       1.0     0.344493      0.287885      0.922266     Biso  1.000000 H
   H585       1.0     0.090772      0.263414      0.941253     Biso  1.000000 H
   H586       1.0     0.075792      0.224446      0.947384     Biso  1.000000 H
   H587       1.0     0.318296      0.203942      0.036768     Biso  1.000000 H
   H588       1.0     0.256778      0.216716      0.986396     Biso  1.000000 H
   H589       1.0     0.383078      0.258202      0.012961     Biso  1.000000 H
   H590       1.0     0.340587      0.241677      0.163814     Biso  1.000000 H
   H591       1.0     0.335044      0.273707      0.110670     Biso  1.000000 H
   H592       1.0     0.270680      0.270835      0.170548     Biso  1.000000 H
   H593       1.0     0.192669      0.225146      0.171120     Biso  1.000000 H
   H594       1.0     0.223626      0.195046      0.115161     Biso  1.000000 H
   H595       1.0     0.226119      0.260447      0.064084     Biso  1.000000 H
   H596       1.0     0.087581      0.194068      0.161672     Biso  1.000000 H
   H597       1.0     0.041205      0.187774      0.083243     Biso  1.000000 H
   H598       1.0     0.117177      0.168947      0.103222     Biso  1.000000 H
   H599       1.0     0.116145      0.269264      0.072944     Biso  1.000000 H
   H600       1.0     0.067923      0.252487      0.129510     Biso  1.000000 H
   H601       1.0     0.141741      0.211172      0.022935     Biso  1.000000 H
   H602       1.0     0.009972      0.247200      0.921339     Biso  1.000000 H
   H603       1.0     0.433015      0.028626      0.414680     Biso  1.000000 H
   H604       1.0     0.727193      0.682689      0.039841     Biso  1.000000 H
   H605       1.0     0.526340      0.992587      0.365375     Biso  1.000000 H
   H606       1.0     0.037482      0.365464      0.980549     Biso  1.000000 H
   H607       1.0     0.078873      0.391399      0.924149     Biso  1.000000 H
   H608       1.0     0.150095      0.394390      0.021538     Biso  1.000000 H
   H609       1.0     0.228689      0.370586      0.020317     Biso  1.000000 H
   H610       1.0     0.147300      0.330800      0.961658     Biso  1.000000 H
   H611       1.0     0.167547      0.315796      0.134462     Biso  1.000000 H
   H612       1.0     0.053678      0.354113      0.891315     Biso  1.000000 H
   H613       1.0     0.215617      0.316210      0.060337     Biso  1.000000 H
   H614       1.0     0.089166      0.394770      0.118797     Biso  1.000000 H
   H615       1.0     0.177386      0.393115      0.148908     Biso  1.000000 H
   H616       1.0     0.100340      0.338376      0.070519     Biso  1.000000 H
   H617       1.0     0.038557      0.383367      0.287189     Biso  1.000000 H
   H618       1.0     0.062693      0.413198      0.236693     Biso  1.000000 H
   H619       1.0     0.993694      0.387412      0.206091     Biso  1.000000 H
   H620       1.0     0.241688      0.339233      0.129875     Biso  1.000000 H
   H621       1.0     0.134838      0.360029      0.808587     Biso  1.000000 H
   H622       1.0     0.249677      0.357358      0.907654     Biso  1.000000 H
   H623       1.0     0.196267      0.386511      0.887654     Biso  1.000000 H
   H624       1.0     0.272155      0.449919      0.850034     Biso  1.000000 H
   H625       1.0     0.357815      0.437558      0.808465     Biso  1.000000 H
   H626       1.0     0.324194      0.473347      0.796091     Biso  1.000000 H
   H627       1.0     0.214538      0.403515      0.693197     Biso  1.000000 H
   H628       1.0     0.192033      0.411004      0.779625     Biso  1.000000 H
   H629       1.0     0.319177      0.438575      0.703455     Biso  1.000000 H
   H630       1.0     0.319443      0.362939      0.669891     Biso  1.000000 H
   H631       1.0     0.373562      0.393271      0.706695     Biso  1.000000 H
   H632       1.0     0.376623      0.355695      0.739079     Biso  1.000000 H
   H633       1.0     0.277912      0.333177      0.798663     Biso  1.000000 H
   H634       1.0     0.225962      0.339898      0.733322     Biso  1.000000 H
   H635       1.0     0.302367      0.388943      0.819280     Biso  1.000000 H
   H636       1.0     0.155419      0.303418      0.789392     Biso  1.000000 H
   H637       1.0     0.190067      0.301266      0.870809     Biso  1.000000 H
   H638       1.0     0.103292      0.310340      0.857963     Biso  1.000000 H
   H639       1.0     0.164742      0.383865      0.278875     Biso  1.000000 H
   H640       1.0     0.202534      0.356916      0.233301     Biso  1.000000 H
   H641       1.0     0.070186      0.344084      0.197519     Biso  1.000000 H
   H642       1.0     0.186261      0.302623      0.243863     Biso  1.000000 H
   H643       1.0     0.873051      0.378595      0.566920     Biso  1.000000 H
   H644       1.0     0.981513      0.378277      0.658514     Biso  1.000000 H
   H645       1.0     0.063856      0.367577      0.635658     Biso  1.000000 H
   H646       1.0     0.010316      0.344830      0.527787     Biso  1.000000 H
   H647       1.0     0.001155      0.297422      0.576885     Biso  1.000000 H
   H648       1.0     0.074462      0.307959      0.623481     Biso  1.000000 H
   H649       1.0     0.016302      0.281290      0.657937     Biso  1.000000 H
   H650       1.0     0.006891      0.355713      0.749945     Biso  1.000000 H
   H651       1.0     0.040335      0.320329      0.755216     Biso  1.000000 H
   H652       1.0     0.931060      0.328711      0.647268     Biso  1.000000 H
   H653       1.0     0.948814      0.357736      0.848298     Biso  1.000000 H
   H654       1.0     0.880059      0.329068      0.870075     Biso  1.000000 H
   H655       1.0     0.963383      0.316544      0.884965     Biso  1.000000 H
   H656       1.0     0.986300      0.272560      0.793706     Biso  1.000000 H
   H657       1.0     0.923604      0.272741      0.732629     Biso  1.000000 H
   H658       1.0     0.892297      0.337831      0.545594     Biso  1.000000 H
   H659       1.0     0.286124      0.477501      0.614433     Biso  1.000000 H
   H660       1.0     0.894284      0.367748      0.484309     Biso  1.000000 H
   H661       1.0     0.006280      0.410710      0.560424     Biso  1.000000 H
   H662       1.0     0.160555      0.286919      0.318186     Biso  1.000000 H
   H663       1.0     0.094474      0.293855      0.260111     Biso  1.000000 H
   H664       1.0     0.246595      0.340723      0.353410     Biso  1.000000 H
   H665       1.0     0.184305      0.319905      0.405440     Biso  1.000000 H
   H666       1.0     0.092712      0.339214      0.333137     Biso  1.000000 H
   H667       1.0     0.238727      0.386117      0.509478     Biso  1.000000 H
   H668       1.0     0.233632      0.346794      0.494749     Biso  1.000000 H
   H669       1.0     0.294144      0.364489      0.449160     Biso  1.000000 H
   H670       1.0     0.114075      0.343197      0.484542     Biso  1.000000 H
   H671       1.0     0.071167      0.363173      0.418234     Biso  1.000000 H
   H672       1.0     0.181271      0.389749      0.386974     Biso  1.000000 H
   H673       1.0     0.161577      0.429862      0.448097     Biso  1.000000 H
   H674       1.0     0.074644      0.431921      0.428113     Biso  1.000000 H
   H675       1.0     0.097201      0.446071      0.503139     Biso  1.000000 H
   H676       1.0     0.990283      0.399153      0.479307     Biso  1.000000 H
   H677       1.0     0.129368      0.391179      0.547478     Biso  1.000000 H
   H678       1.0     0.238497      0.489642      0.725409     Biso  1.000000 H
   H679       1.0     0.168699      0.463712      0.720118     Biso  1.000000 H
   H680       1.0     0.272546      0.423023      0.589978     Biso  1.000000 H
   H681       1.0     0.412528      0.722552      0.508759     Biso  1.000000 H
   H682       1.0     0.363227      0.738423      0.448745     Biso  1.000000 H
   H683       1.0     0.260032      0.728095      0.508835     Biso  1.000000 H
   H684       1.0     0.461313      0.670918      0.445181     Biso  1.000000 H
   H685       1.0     0.418191      0.659467      0.523240     Biso  1.000000 H
   H686       1.0     0.401975      0.641249      0.451424     Biso  1.000000 H
   H687       1.0     0.350479      0.669387      0.346124     Biso  1.000000 H
   H688       1.0     0.393616      0.702510      0.367547     Biso  1.000000 H
   H689       1.0     0.302283      0.678902      0.475879     Biso  1.000000 H
   H690       1.0     0.348627      0.730386      0.271179     Biso  1.000000 H
   H691       1.0     0.304249      0.696853      0.242400     Biso  1.000000 H
   H692       1.0     0.259797      0.730243      0.250136     Biso  1.000000 H
   H693       1.0     0.204547      0.679490      0.403784     Biso  1.000000 H
   H694       1.0     0.197482      0.677340      0.317968     Biso  1.000000 H
   H695       1.0     0.281004      0.731494      0.367592     Biso  1.000000 H
   H696       1.0     0.374334      0.771045      0.557553     Biso  1.000000 H
   H697       1.0     0.118528      0.723297      0.454679     Biso  1.000000 H
   H698       1.0     0.293341      0.770422      0.606565     Biso  1.000000 H
   H699       1.0     0.209209      0.730032      0.634489     Biso  1.000000 H
   H700       1.0     0.170920      0.808244      0.877224     Biso  1.000000 H
   H701       1.0     0.197889      0.752510      0.734700     Biso  1.000000 H
   H702       1.0     0.158401      0.727138      0.803569     Biso  1.000000 H
   H703       1.0     0.266133      0.779172      0.812379     Biso  1.000000 H
   H704       1.0     0.275252      0.708673      0.875452     Biso  1.000000 H
   H705       1.0     0.228335      0.677829      0.845153     Biso  1.000000 H
   H706       1.0     0.317347      0.682622      0.825984     Biso  1.000000 H
   H707       1.0     0.176729      0.687077      0.718295     Biso  1.000000 H
   H708       1.0     0.257738      0.671428      0.708503     Biso  1.000000 H
   H709       1.0     0.308754      0.724581      0.746861     Biso  1.000000 H
   H710       1.0     0.171609      0.694381      0.541128     Biso  1.000000 H
   H711       1.0     0.228116      0.663070      0.569938     Biso  1.000000 H
   H712       1.0     0.144390      0.671736      0.605558     Biso  1.000000 H
   H713       1.0     0.329684      0.688611      0.597107     Biso  1.000000 H
   H714       1.0     0.339560      0.724778      0.637901     Biso  1.000000 H
   H715       1.0     0.289962      0.775505      0.517392     Biso  1.000000 H
   H716       1.0     0.884455      0.325748      0.760973     Biso  1.000000 H
   H717       1.0     0.178862      0.751173      0.425763     Biso  1.000000 H
   H718       1.0     0.081986      0.695296      0.268602     Biso  1.000000 H
   H719       1.0     0.040402      0.558108      0.445302     Biso  1.000000 H
   H720       1.0     0.183122      0.479153      0.404933     Biso  1.000000 H
   H721       1.0     0.189165      0.499039      0.326064     Biso  1.000000 H
   H722       1.0     0.259234      0.509114      0.394235     Biso  1.000000 H
   H723       1.0     0.105304      0.505375      0.491220     Biso  1.000000 H
   H724       1.0     0.121468      0.543622      0.512790     Biso  1.000000 H
   H725       1.0     0.186568      0.553303      0.401678     Biso  1.000000 H
   H726       1.0     0.211534      0.554202      0.580642     Biso  1.000000 H
   H727       1.0     0.293033      0.532741      0.583026     Biso  1.000000 H
   H728       1.0     0.267155      0.550468      0.509559     Biso  1.000000 H
   H729       1.0     0.131840      0.479141      0.580267     Biso  1.000000 H
   H730       1.0     0.157890      0.506646      0.637972     Biso  1.000000 H
   H731       1.0     0.235124      0.493873      0.510774     Biso  1.000000 H
   H732       1.0     0.181813      0.425465      0.598145     Biso  1.000000 H
   H733       1.0     0.224638      0.445142      0.534865     Biso  1.000000 H
   H734       1.0     0.064586      0.510719      0.374438     Biso  1.000000 H
   H735       1.0     0.088301      0.750627      0.402478     Biso  1.000000 H
   H736       1.0     0.104387      0.531173      0.313963     Biso  1.000000 H
   H737       1.0     0.977592      0.555537      0.306378     Biso  1.000000 H
   H738       1.0     0.043338      0.721541      0.311183     Biso  1.000000 H
   H739       1.0     0.166056      0.734799      0.311274     Biso  1.000000 H
   H740       1.0     0.928176      0.667939      0.384594     Biso  1.000000 H
   H741       1.0     0.935794      0.705835      0.340160     Biso  1.000000 H
   H742       1.0     0.945503      0.672498      0.300682     Biso  1.000000 H
   H743       1.0     0.119732      0.646853      0.365911     Biso  1.000000 H
   H744       1.0     0.061160      0.641745      0.297801     Biso  1.000000 H
   H745       1.0     0.049246      0.685133      0.419718     Biso  1.000000 H
   H746       1.0     0.997756      0.645056      0.484861     Biso  1.000000 H
   H747       1.0     0.014076      0.607176      0.496765     Biso  1.000000 H
   H748       1.0     0.082987      0.632333      0.497469     Biso  1.000000 H
   H749       1.0     0.122975      0.592454      0.409445     Biso  1.000000 H
   H750       1.0     0.094255      0.591159      0.325294     Biso  1.000000 H
   H751       1.0     0.985345      0.617254      0.379400     Biso  1.000000 H
   H752       1.0     0.936128      0.572316      0.380351     Biso  1.000000 H
   H753       1.0     0.948747      0.532808      0.379683     Biso  1.000000 H
   H754       1.0     0.114335      0.778076      0.850860     Biso  1.000000 H
   H755       1.0     0.765085      0.268263      0.841872     Biso  1.000000 H
   H756       1.0     0.797924      0.275984      0.753666     Biso  1.000000 H
   H757       1.0     0.154490      0.903415      0.078291     Biso  1.000000 H
   H758       1.0     0.320413      0.871117      0.141146     Biso  1.000000 H
   H759       1.0     0.270153      0.903262      0.157454     Biso  1.000000 H
   H760       1.0     0.286322      0.886935      0.011680     Biso  1.000000 H
   H761       1.0     0.446004      0.910015      0.029943     Biso  1.000000 H
   H762       1.0     0.466814      0.885244      0.089992     Biso  1.000000 H
   H763       1.0     0.186683      0.909830      0.993070     Biso  1.000000 H
   H764       1.0     0.400744      0.878935      0.029492     Biso  1.000000 H
   H765       1.0     0.364302      0.923904      0.214137     Biso  1.000000 H
   H766       1.0     0.354212      0.933332      0.083076     Biso  1.000000 H
   H767       1.0     0.345697      0.976143      0.181368     Biso  1.000000 H
   H768       1.0     0.413503      0.002694      0.188547     Biso  1.000000 H
   H769       1.0     0.386222      0.985797      0.112265     Biso  1.000000 H
   H770       1.0     0.467189      0.943345      0.278495     Biso  1.000000 H
   H771       1.0     0.434459      0.903881      0.190487     Biso  1.000000 H
   H772       1.0     0.219695      0.931446      0.060033     Biso  1.000000 H
   H773       1.0     0.321592      0.830847      0.100944     Biso  1.000000 H
   H774       1.0     0.192205      0.851370      0.018631     Biso  1.000000 H
   H775       1.0     0.452292      0.713605      0.893740     Biso  1.000000 H
   H776       1.0     0.417711      0.725962      0.967759     Biso  1.000000 H
   H777       1.0     0.353555      0.790044      0.881796     Biso  1.000000 H
   H778       1.0     0.421768      0.812659      0.902205     Biso  1.000000 H
   H779       1.0     0.499226      0.767198      0.940367     Biso  1.000000 H
   H780       1.0     0.403528      0.797135      0.100412     Biso  1.000000 H
   H781       1.0     0.468853      0.784007      0.045122     Biso  1.000000 H
   H782       1.0     0.451468      0.822257      0.050773     Biso  1.000000 H
   H783       1.0     0.270664      0.819104      0.959268     Biso  1.000000 H
   H784       1.0     0.342433      0.842896      0.983905     Biso  1.000000 H
   H785       1.0     0.341927      0.774398      0.005695     Biso  1.000000 H
   H786       1.0     0.196168      0.789919      0.068332     Biso  1.000000 H
   H787       1.0     0.279758      0.774486      0.096184     Biso  1.000000 H
   H788       1.0     0.229878      0.797284      0.144401     Biso  1.000000 H
   H789       1.0     0.191105      0.850242      0.104822     Biso  1.000000 H
   H790       1.0     0.491900      0.979820      0.252896     Biso  1.000000 H
   H791       1.0     0.482561      0.949692      0.126847     Biso  1.000000 H
   H792       1.0     0.545268      0.896491      0.294652     Biso  1.000000 H
   H793       1.0     0.542415      0.890285      0.207479     Biso  1.000000 H
   H794       1.0     0.880518      0.870241      0.358585     Biso  1.000000 H
   H795       1.0     0.806585      0.851402      0.361030     Biso  1.000000 H
   H796       1.0     0.839560      0.912652      0.440897     Biso  1.000000 H
   H797       1.0     0.927770      0.853337      0.549164     Biso  1.000000 H
   H798       1.0     0.936347      0.882211      0.489641     Biso  1.000000 H
   H799       1.0     0.858811      0.880634      0.541078     Biso  1.000000 H
   H800       1.0     0.951698      0.813917      0.471707     Biso  1.000000 H
   H801       1.0     0.964624      0.838508      0.396604     Biso  1.000000 H
   H802       1.0     0.826723      0.834058      0.475266     Biso  1.000000 H
   H803       1.0     0.925903      0.761640      0.309188     Biso  1.000000 H
   H804       1.0     0.974031      0.795134      0.307472     Biso  1.000000 H
   H805       1.0     0.986477      0.771590      0.380124     Biso  1.000000 H
   H806       1.0     0.811195      0.783724      0.457677     Biso  1.000000 H
   H807       1.0     0.901240      0.767557      0.475919     Biso  1.000000 H
   H808       1.0     0.857763      0.805549      0.353425     Biso  1.000000 H
   H809       1.0     0.727516      0.869569      0.468618     Biso  1.000000 H
   H810       1.0     0.371273      0.730363      0.895871     Biso  1.000000 H
   H811       1.0     0.694489      0.904150      0.431019     Biso  1.000000 H
   H812       1.0     0.716008      0.948098      0.381607     Biso  1.000000 H
   H813       1.0     0.624482      0.895629      0.242551     Biso  1.000000 H
   H814       1.0     0.629050      0.949303      0.313715     Biso  1.000000 H
   H815       1.0     0.608433      0.984277      0.271366     Biso  1.000000 H
   H816       1.0     0.577674      0.943224      0.177985     Biso  1.000000 H
   H817       1.0     0.671108      0.005432      0.181454     Biso  1.000000 H
   H818       1.0     0.755324      0.990659      0.170786     Biso  1.000000 H
   H819       1.0     0.686960      0.974851      0.132113     Biso  1.000000 H
   H820       1.0     0.737251      0.994111      0.311117     Biso  1.000000 H
   H821       1.0     0.802096      0.974858      0.271715     Biso  1.000000 H
   H822       1.0     0.713234      0.937776      0.215985     Biso  1.000000 H
   H823       1.0     0.785582      0.992411      0.414741     Biso  1.000000 H
   H824       1.0     0.815476      0.960041      0.459702     Biso  1.000000 H
   H825       1.0     0.860438      0.972587      0.380686     Biso  1.000000 H
   H826       1.0     0.838079      0.917264      0.318332     Biso  1.000000 H
   H827       1.0     0.751695      0.905238      0.312575     Biso  1.000000 H
   H828       1.0     0.742612      0.905206      0.504845     Biso  1.000000 H
   H829       1.0     0.521673      0.815372      0.872125     Biso  1.000000 H
   H830       1.0     0.439418      0.767865      0.804182     Biso  1.000000 H
   H831       1.0     0.513591      0.752054      0.827123     Biso  1.000000 H
   H832       1.0     0.663636      0.112551      0.900059     Biso  1.000000 H
   H833       1.0     0.748994      0.135103      0.810577     Biso  1.000000 H
   H834       1.0     0.807612      0.101132      0.873320     Biso  1.000000 H
   H835       1.0     0.773010      0.071820      0.935273     Biso  1.000000 H
   H836       1.0     0.819381      0.063320      0.857153     Biso  1.000000 H
   H837       1.0     0.627236      0.054417      0.885041     Biso  1.000000 H
   H838       1.0     0.701320      0.030320      0.873234     Biso  1.000000 H
   H839       1.0     0.732423      0.078568      0.782643     Biso  1.000000 H
   H840       1.0     0.559539      0.016784      0.853244     Biso  1.000000 H
   H841       1.0     0.548234      0.001809      0.765545     Biso  1.000000 H
   H842       1.0     0.613246      0.985227      0.819853     Biso  1.000000 H
   H843       1.0     0.724940      0.002852      0.773509     Biso  1.000000 H
   H844       1.0     0.741011      0.037286      0.731014     Biso  1.000000 H
   H845       1.0     0.615660      0.049395      0.754102     Biso  1.000000 H
   H846       1.0     0.607083      0.013219      0.584930     Biso  1.000000 H
   H847       1.0     0.615889      0.099791      0.829381     Biso  1.000000 H
   H848       1.0     0.578498      0.030350      0.658002     Biso  1.000000 H
   H849       1.0     0.688493      0.154968      0.708817     Biso  1.000000 H
   H850       1.0     0.696178      0.115097      0.705353     Biso  1.000000 H
   H851       1.0     0.937906      0.227896      0.843396     Biso  1.000000 H
   H852       1.0     0.882630      0.222869      0.771752     Biso  1.000000 H
   H853       1.0     0.895885      0.273499      0.877209     Biso  1.000000 H
   H854       1.0     0.863202      0.180505      0.956873     Biso  1.000000 H
   H855       1.0     0.916001      0.176534      0.882687     Biso  1.000000 H
   H856       1.0     0.933808      0.203745      0.940934     Biso  1.000000 H
   H857       1.0     0.795927      0.182893      0.797782     Biso  1.000000 H
   H858       1.0     0.755266      0.217066      0.813478     Biso  1.000000 H
   H859       1.0     0.823281      0.232474      0.910140     Biso  1.000000 H
   H860       1.0     0.647441      0.195104      0.961116     Biso  1.000000 H
   H861       1.0     0.720795      0.212557      0.975905     Biso  1.000000 H
   H862       1.0     0.668997      0.225672      0.909674     Biso  1.000000 H
   H863       1.0     0.649866      0.184040      0.816840     Biso  1.000000 H
   H864       1.0     0.623956      0.156277      0.882616     Biso  1.000000 H
   H865       1.0     0.749776      0.165616      0.917415     Biso  1.000000 H
   H866       1.0     0.613413      0.133002      0.729171     Biso  1.000000 H
   H867       1.0     0.809787      0.301979      0.823498     Biso  1.000000 H
   H868       1.0     0.655867      0.045781      0.619709     Biso  1.000000 H
   H869       1.0     0.731969      0.988556      0.582059     Biso  1.000000 H
   H870       1.0     0.766978      0.761265      0.717581     Biso  1.000000 H
   H871       1.0     0.685541      0.775832      0.688913     Biso  1.000000 H
   H872       1.0     0.762181      0.783175      0.634924     Biso  1.000000 H
   H873       1.0     0.779231      0.813542      0.837888     Biso  1.000000 H
   H874       1.0     0.746673      0.779923      0.819984     Biso  1.000000 H
   H875       1.0     0.715487      0.825236      0.705176     Biso  1.000000 H
   H876       1.0     0.697826      0.816519      0.930007     Biso  1.000000 H
   H877       1.0     0.702905      0.851192      0.891051     Biso  1.000000 H
   H878       1.0     0.615232      0.838767      0.911527     Biso  1.000000 H
   H879       1.0     0.614768      0.774838      0.865887     Biso  1.000000 H
   H880       1.0     0.616776      0.777778      0.773990     Biso  1.000000 H
   H881       1.0     0.655127      0.835557      0.792577     Biso  1.000000 H
   H882       1.0     0.532206      0.838988      0.758416     Biso  1.000000 H
   H883       1.0     0.524796      0.804104      0.719115     Biso  1.000000 H
   H884       1.0     0.451291      0.823973      0.756871     Biso  1.000000 H
   H885       1.0     0.839946      0.857699      0.786542     Biso  1.000000 H
   H886       1.0     0.781421      0.015880      0.631861     Biso  1.000000 H
   H887       1.0     0.835086      0.822104      0.655906     Biso  1.000000 H
   H888       1.0     0.931086      0.885441      0.743768     Biso  1.000000 H
   H889       1.0     0.645314      0.983582      0.685344     Biso  1.000000 H
   H890       1.0     0.904196      0.967424      0.674939     Biso  1.000000 H
   H891       1.0     0.874162      0.951691      0.588672     Biso  1.000000 H
   H892       1.0     0.885258      0.993187      0.607907     Biso  1.000000 H
   H893       1.0     0.772244      0.926405      0.610120     Biso  1.000000 H
   H894       1.0     0.708896      0.937393      0.662878     Biso  1.000000 H
   H895       1.0     0.805266      0.971353      0.711930     Biso  1.000000 H
   H896       1.0     0.811387      0.905282      0.820015     Biso  1.000000 H
   H897       1.0     0.759834      0.937085      0.812708     Biso  1.000000 H
   H898       1.0     0.721650      0.904414      0.793934     Biso  1.000000 H
   H899       1.0     0.794321      0.876948      0.640853     Biso  1.000000 H
   H900       1.0     0.739525      0.871721      0.702963     Biso  1.000000 H
   H901       1.0     0.855443      0.917002      0.715161     Biso  1.000000 H
   H902       1.0     0.948929      0.845998      0.727631     Biso  1.000000 H
   H903       1.0     0.921476      0.870505      0.657957     Biso  1.000000 H
   H904       1.0     0.861716      0.805378      0.732239     Biso  1.000000 H
   H905       1.0     0.145657      0.802514      0.792739     Biso  1.000000 H
   H906       1.0     0.842256      0.753150      0.411799     Biso  1.000000 H
   H907       1.0     0.237757      0.757104      0.880859     Biso  1.000000 H
   H908       1.0     0.975329      0.005154      0.205605     Biso  1.000000 H
   H909       1.0     0.938475      0.975970      0.258880     Biso  1.000000 H
   H910       1.0     0.035600      0.984539      0.258754     Biso  1.000000 H
   H911       1.0     0.002766      0.908977      0.150710     Biso  1.000000 H
   H912       1.0     0.934762      0.923019      0.204456     Biso  1.000000 H
   H913       1.0     0.962784      0.961910      0.131566     Biso  1.000000 H
   H914       1.0     0.032080      0.002738      0.111404     Biso  1.000000 H
   H915       1.0     0.015624      0.889965      0.361056     Biso  1.000000 H
   H916       1.0     0.975522      0.876538      0.288571     Biso  1.000000 H
   H917       1.0     0.121223      0.902354      0.192117     Biso  1.000000 H
   H918       1.0     0.072470      0.870890      0.211894     Biso  1.000000 H
   H919       1.0     0.064414      0.933659      0.274981     Biso  1.000000 H
   H920       1.0     0.235317      0.903367      0.352509     Biso  1.000000 H
   H921       1.0     0.219210      0.920331      0.267731     Biso  1.000000 H
   H922       1.0     0.957647      0.914899      0.323461     Biso  1.000000 H
   H923       1.0     0.093828      0.944973      0.112265     Biso  1.000000 H
   H924       1.0     0.118549      0.962177      0.182411     Biso  1.000000 H
   H925       1.0     0.149396      0.980499      0.026100     Biso  1.000000 H
   H926       1.0     0.367284      0.041688      0.077046     Biso  1.000000 H
   H927       1.0     0.361809      0.083929      0.165839     Biso  1.000000 H
   H928       1.0     0.288345      0.105689      0.198193     Biso  1.000000 H
   H929       1.0     0.319772      0.069154      0.236258     Biso  1.000000 H
   H930       1.0     0.168407      0.097896      0.144254     Biso  1.000000 H
   H931       1.0     0.174664      0.068908      0.209555     Biso  1.000000 H
   H932       1.0     0.268709      0.041444      0.146538     Biso  1.000000 H
   H933       1.0     0.053162      0.085887      0.106129     Biso  1.000000 H
   H934       1.0     0.019363      0.049467      0.105860     Biso  1.000000 H
   H935       1.0     0.040043      0.068123      0.182274     Biso  1.000000 H
   H936       1.0     0.126062      0.018994      0.196056     Biso  1.000000 H
   H937       1.0     0.194520      0.009079      0.139379     Biso  1.000000 H
   H938       1.0     0.138769      0.053421      0.064104     Biso  1.000000 H
   H939       1.0     0.070353      0.977304      0.006247     Biso  1.000000 H
   H940       1.0     0.098171      0.016212      0.002865     Biso  1.000000 H
   H941       1.0     0.166499      0.926679      0.342028     Biso  1.000000 H
   H942       1.0     0.241021      0.864980      0.231883     Biso  1.000000 H
   H943       1.0     0.170352      0.839006      0.225600     Biso  1.000000 H
   H944       1.0     0.116713      0.869252      0.329502     Biso  1.000000 H
   H945       1.0     0.413587      0.862995      0.568606     Biso  1.000000 H
   H946       1.0     0.353586      0.841612      0.514496     Biso  1.000000 H
   H947       1.0     0.509127      0.807488      0.583649     Biso  1.000000 H
   H948       1.0     0.532524      0.847012      0.569538     Biso  1.000000 H
   H949       1.0     0.439653      0.807164      0.474476     Biso  1.000000 H
   H950       1.0     0.691616      0.804725      0.529230     Biso  1.000000 H
   H951       1.0     0.665998      0.834866      0.579669     Biso  1.000000 H
   H952       1.0     0.637085      0.796040      0.596732     Biso  1.000000 H
   H953       1.0     0.525172      0.771310      0.513433     Biso  1.000000 H
   H954       1.0     0.607171      0.761716      0.508668     Biso  1.000000 H
   H955       1.0     0.607708      0.829038      0.468482     Biso  1.000000 H
   H956       1.0     0.476142      0.740573      0.412381     Biso  1.000000 H
   H957       1.0     0.522507      0.735812      0.336570     Biso  1.000000 H
   H958       1.0     0.557933      0.723986      0.415318     Biso  1.000000 H
   H959       1.0     0.668767      0.759119      0.379891     Biso  1.000000 H
   H960       1.0     0.389377      0.822956      0.581290     Biso  1.000000 H
   H961       1.0     0.291140      0.095484      0.050454     Biso  1.000000 H
   H962       1.0     0.456010      0.868798      0.345709     Biso  1.000000 H
   H963       1.0     0.492604      0.874323      0.467606     Biso  1.000000 H
   H964       1.0     0.161446      0.788242      0.276252     Biso  1.000000 H
   H965       1.0     0.174424      0.791240      0.366200     Biso  1.000000 H
   H966       1.0     0.116119      0.815603      0.321862     Biso  1.000000 H
   H967       1.0     0.287918      0.811357      0.225529     Biso  1.000000 H
   H968       1.0     0.301339      0.792215      0.297107     Biso  1.000000 H
   H969       1.0     0.236907      0.837602      0.350782     Biso  1.000000 H
   H970       1.0     0.434538      0.808936      0.253245     Biso  1.000000 H
   H971       1.0     0.391353      0.833050      0.192998     Biso  1.000000 H
   H972       1.0     0.450874      0.848861      0.251589     Biso  1.000000 H
   H973       1.0     0.408826      0.815870      0.370661     Biso  1.000000 H
   H974       1.0     0.330810      0.833817      0.403080     Biso  1.000000 H
   H975       1.0     0.333099      0.862633      0.287933     Biso  1.000000 H
   H976       1.0     0.423416      0.912070      0.421865     Biso  1.000000 H
   H977       1.0     0.353644      0.902218      0.367835     Biso  1.000000 H
   H978       1.0     0.356897      0.891142      0.456006     Biso  1.000000 H
   H979       1.0     0.526095      0.846164      0.414639     Biso  1.000000 H
   H980       1.0     0.241428      0.069450      0.023988     Biso  1.000000 H
   H981       1.0     0.303545      0.025740      0.936802     Biso  1.000000 H
   H982       1.0     0.267348      0.016059      0.015482     Biso  1.000000 H
   H983       1.0     0.132257      0.009825      0.624859     Biso  1.000000 H
   H984       1.0     0.025896      0.043898      0.518126     Biso  1.000000 H
   H985       1.0     0.025750      0.010751      0.574171     Biso  1.000000 H
   H986       1.0     0.145548      0.003181      0.513331     Biso  1.000000 H
   H987       1.0     0.103537      0.965950      0.443712     Biso  1.000000 H
   H988       1.0     0.068174      0.961583      0.523098     Biso  1.000000 H
   H989       1.0     0.020135      0.947348      0.458760     Biso  1.000000 H
   H990       1.0     0.982754      0.991605      0.365476     Biso  1.000000 H
   H991       1.0     0.069034      0.007309      0.372969     Biso  1.000000 H
   H992       1.0     0.961730      0.996597      0.490902     Biso  1.000000 H
   H993       1.0     0.954733      0.047630      0.277528     Biso  1.000000 H
   H994       1.0     0.010765      0.073231      0.300576     Biso  1.000000 H
   H995       1.0     0.046149      0.038217      0.290419     Biso  1.000000 H
   H996       1.0     0.896964      0.037729      0.453408     Biso  1.000000 H
   H997       1.0     0.876341      0.028230      0.374888     Biso  1.000000 H
   H998       1.0     0.139525      0.052988      0.621309     Biso  1.000000 H
   H999       1.0     0.015520      0.059278      0.412224     Biso  1.000000 H
   H1000      1.0     0.209506      0.032155      0.606155     Biso  1.000000 H
   H1001      1.0     0.195573      0.063712      0.501651     Biso  1.000000 H
   H1002      1.0     0.564034      0.012053      0.438310     Biso  1.000000 H
   H1003      1.0     0.522440      0.974918      0.445054     Biso  1.000000 H
   H1004      1.0     0.380653      0.966546      0.453707     Biso  1.000000 H
   H1005      1.0     0.404629      0.969346      0.371683     Biso  1.000000 H
   H1006      1.0     0.437233      0.010464      0.493904     Biso  1.000000 H
   H1007      1.0     0.256857      0.958882      0.394650     Biso  1.000000 H
   H1008      1.0     0.232000      0.983455      0.326449     Biso  1.000000 H
   H1009      1.0     0.304202      0.958493      0.321629     Biso  1.000000 H
   H1010      1.0     0.314464      0.034921      0.468228     Biso  1.000000 H
   H1011      1.0     0.263646      0.000739      0.480547     Biso  1.000000 H
   H1012      1.0     0.335508      0.015839      0.349076     Biso  1.000000 H
   H1013      1.0     0.178215      0.065391      0.330960     Biso  1.000000 H
   H1014      1.0     0.263729      0.071463      0.372529     Biso  1.000000 H
   H1015      1.0     0.253452      0.045276      0.316358     Biso  1.000000 H
   H1016      1.0     0.118455      0.060652      0.458310     Biso  1.000000 H
   H1017      1.0     0.171207      0.015246      0.392184     Biso  1.000000 H
   H1018      1.0     0.666139      0.796952      0.397612     Biso  1.000000 H
   H1019      1.0     0.951797      0.102585      0.464218     Biso  1.000000 H
   H1020      1.0     0.887787      0.079574      0.497175     Biso  1.000000 H
   H1021      1.0     0.650111      0.079305      0.028105     Biso  1.000000 H
   H1022      1.0     0.656670      0.109824      0.170036     Biso  1.000000 H
   H1023      1.0     0.485465      0.077371      0.191849     Biso  1.000000 H
   H1024      1.0     0.543083      0.043923      0.178553     Biso  1.000000 H
   H1025      1.0     0.575557      0.079261      0.210223     Biso  1.000000 H
   H1026      1.0     0.483400      0.047410      0.082164     Biso  1.000000 H
   H1027      1.0     0.528952      0.058189      0.004591     Biso  1.000000 H
   H1028      1.0     0.552755      0.108439      0.102458     Biso  1.000000 H
   H1029      1.0     0.434877      0.130435      0.964610     Biso  1.000000 H
   H1030      1.0     0.516282      0.127201      0.009315     Biso  1.000000 H
   H1031      1.0     0.502151      0.107556      0.936651     Biso  1.000000 H
   H1032      1.0     0.413608      0.052928      0.946655     Biso  1.000000 H
   H1033      1.0     0.352523      0.086758      0.954245     Biso  1.000000 H
   H1034      1.0     0.416481      0.098936      0.065901     Biso  1.000000 H
   H1035      1.0     0.349415      0.002317      0.999054     Biso  1.000000 H
   H1036      1.0     0.654965      0.057100      0.104630     Biso  1.000000 H
   H1037      1.0     0.863619      0.117156      0.472517     Biso  1.000000 H
   H1038      1.0     0.707233      0.151771      0.110134     Biso  1.000000 H
   H1039      1.0     0.704839      0.131408      0.032175     Biso  1.000000 H
   H1040      1.0     0.786776      0.100926      0.388635     Biso  1.000000 H
   H1041      1.0     0.782897      0.067050      0.430209     Biso  1.000000 H
   H1042      1.0     0.902418      0.091155      0.354200     Biso  1.000000 H
   H1043      1.0     0.682189      0.035000      0.373309     Biso  1.000000 H
   H1044      1.0     0.652056      0.071968      0.350924     Biso  1.000000 H
   H1045      1.0     0.663214      0.040534      0.290981     Biso  1.000000 H
   H1046      1.0     0.820205      0.098630      0.262627     Biso  1.000000 H
   H1047      1.0     0.731719      0.099520      0.265488     Biso  1.000000 H
   H1048      1.0     0.795990      0.039807      0.309072     Biso  1.000000 H
   H1049      1.0     0.887448      0.070954      0.191059     Biso  1.000000 H
   H1050      1.0     0.853967      0.034608      0.211246     Biso  1.000000 H
   H1051      1.0     0.857768      0.046143      0.126386     Biso  1.000000 H
   H1052      1.0     0.784774      0.080924      0.085774     Biso  1.000000 H
   H1053      1.0     0.795275      0.110878      0.139571     Biso  1.000000 H
   H1054      1.0     0.737710      0.050639      0.187292     Biso  1.000000 H
   H1055      1.0     0.628742      0.140635      0.076959     Biso  1.000000 H
   H1056      1.0     0.520729      0.788798      0.402493     Biso  1.000000 H
   H1057      1.0     0.537968      0.824177      0.320844     Biso  1.000000 H
   H1058      1.0     0.623377      0.841714      0.322747     Biso  1.000000 H
   H1059      1.0     0.017986      0.865916      0.044266     Biso  1.000000 H
   H1060      1.0     0.937724      0.842780      0.061071     Biso  1.000000 H
   H1061      1.0     0.937995      0.791478      0.097714     Biso  1.000000 H
   H1062      1.0     0.010656      0.791133      0.138224     Biso  1.000000 H
   H1063      1.0     0.078665      0.816713      0.077638     Biso  1.000000 H
   H1064      1.0     0.961245      0.730873      0.150710     Biso  1.000000 H
   H1065      1.0     0.900134      0.739002      0.087324     Biso  1.000000 H
   H1066      1.0     0.954587      0.708054      0.075648     Biso  1.000000 H
   H1067      1.0     0.086736      0.747708      0.141956     Biso  1.000000 H
   H1068      1.0     0.116296      0.756439      0.068944     Biso  1.000000 H
   H1069      1.0     0.997855      0.750828      0.016090     Biso  1.000000 H
   H1070      1.0     0.148525      0.719213      0.979723     Biso  1.000000 H
   H1071      1.0     0.128237      0.676745      0.990503     Biso  1.000000 H
   H1072      1.0     0.065254      0.704549      0.975252     Biso  1.000000 H
   H1073      1.0     0.170482      0.706134      0.171970     Biso  1.000000 H
   H1074      1.0     0.995352      0.847374      0.124903     Biso  1.000000 H
   H1075      1.0     0.212546      0.713327      0.101729     Biso  1.000000 H
   H1076      1.0     0.931785      0.794221      0.976948     Biso  1.000000 H
   H1077      1.0     0.064831      0.827379      0.943870     Biso  1.000000 H
   H1078      1.0     0.966579      0.698255      0.896914     Biso  1.000000 H
   H1079      1.0     0.968180      0.673536      0.826749     Biso  1.000000 H
   H1080      1.0     0.043760      0.689079      0.857097     Biso  1.000000 H
   H1081      1.0     0.870955      0.724810      0.783170     Biso  1.000000 H
   H1082      1.0     0.925418      0.752621      0.753352     Biso  1.000000 H
   H1083      1.0     0.032941      0.733125      0.796865     Biso  1.000000 H
   H1084      1.0     0.822614      0.764325      0.937820     Biso  1.000000 H
   H1085      1.0     0.835436      0.725825      0.911198     Biso  1.000000 H
   H1086      1.0     0.900859      0.739525      0.959318     Biso  1.000000 H
   H1087      1.0     0.999570      0.787178      0.840607     Biso  1.000000 H
   H1088      1.0     0.015802      0.759680      0.895011     Biso  1.000000 H
   H1089      1.0     0.869094      0.780446      0.840445     Biso  1.000000 H
   H1090      1.0     0.872843      0.827106      0.913775     Biso  1.000000 H
   H1091      1.0     0.944268      0.852276      0.939096     Biso  1.000000 H
   H1092      1.0     0.943141      0.838142      0.855224     Biso  1.000000 H
   H1093      1.0     0.072481      0.790547      0.972974     Biso  1.000000 H
   H1094      1.0     0.952928      0.738307      0.658995     Biso  1.000000 H
   H1095      1.0     0.059330      0.692713      0.096088     Biso  1.000000 H
   H1096      1.0     0.161707      0.648913      0.218927     Biso  1.000000 H
   H1097      1.0     0.503001      0.683794      0.044803     Biso  1.000000 H
   H1098      1.0     0.583081      0.674968      0.017274     Biso  1.000000 H
   H1099      1.0     0.527941      0.644303      0.146918     Biso  1.000000 H
   H1100      1.0     0.546550      0.733970      0.194557     Biso  1.000000 H
   H1101      1.0     0.482540      0.711969      0.143956     Biso  1.000000 H
   H1102      1.0     0.536320      0.692790      0.205863     Biso  1.000000 H
   H1103      1.0     0.644479      0.743688      0.106260     Biso  1.000000 H
   H1104      1.0     0.573305      0.739430      0.051507     Biso  1.000000 H
   H1105      1.0     0.629947      0.689009      0.136741     Biso  1.000000 H
   H1106      1.0     0.716686      0.766806      0.010809     Biso  1.000000 H
   H1107      1.0     0.709303      0.747949      0.932018     Biso  1.000000 H
   H1108      1.0     0.632393      0.762608      0.962746     Biso  1.000000 H
   H1109      1.0     0.778595      0.712602      0.003933     Biso  1.000000 H
   H1110      1.0     0.459180      0.877439      0.922929     Biso  1.000000 H
   H1111      1.0     0.653396      0.706956      0.975637     Biso  1.000000 H
   H1112      1.0     0.623122      0.601271      0.095921     Biso  1.000000 H
   H1113      1.0     0.158907      0.622443      0.162209     Biso  1.000000 H
   H1114      1.0     0.648239      0.633658      0.135622     Biso  1.000000 H
   H1115      1.0     0.435132      0.648679      0.998892     Biso  1.000000 H
   H1116      1.0     0.090866      0.651192      0.168350     Biso  1.000000 H
   H1117      1.0     0.271097      0.641717      0.168259     Biso  1.000000 H
   H1118      1.0     0.290275      0.679886      0.149151     Biso  1.000000 H
   H1119      1.0     0.180176      0.652853      0.070124     Biso  1.000000 H
   H1120      1.0     0.335456      0.670240      0.965900     Biso  1.000000 H
   H1121      1.0     0.259724      0.683931      0.993756     Biso  1.000000 H
   H1122      1.0     0.336942      0.697145      0.028798     Biso  1.000000 H
   H1123      1.0     0.383641      0.624774      0.130538     Biso  1.000000 H
   H1124      1.0     0.411626      0.659801      0.107906     Biso  1.000000 H
   H1125      1.0     0.289696      0.627537      0.050327     Biso  1.000000 H
   H1126      1.0     0.360261      0.606539      0.955161     Biso  1.000000 H
   H1127      1.0     0.434506      0.584434      0.974387     Biso  1.000000 H
   H1128      1.0     0.364156      0.587355      0.027932     Biso  1.000000 H
   H1129      1.0     0.529109      0.612171      0.009953     Biso  1.000000 H
   H1130      1.0     0.489433      0.598137      0.086828     Biso  1.000000 H
   H1131      1.0     0.650215      0.636621      0.048489     Biso  1.000000 H
   H1132      1.0     0.744364      0.717015      0.090478     Biso  1.000000 H
   H1133      1.0     0.962445      0.683625      0.716244     Biso  1.000000 H
   H1134      1.0     0.037143      0.690587      0.576070     Biso  1.000000 H
   H1135      1.0     0.818500      0.928604      0.072863     Biso  1.000000 H
   H1136      1.0     0.732350      0.934032      0.092083     Biso  1.000000 H
   H1137      1.0     0.709637      0.888538      0.008115     Biso  1.000000 H
   H1138      1.0     0.655591      0.938894      0.947886     Biso  1.000000 H
   H1139      1.0     0.647425      0.960200      0.021588     Biso  1.000000 H
   H1140      1.0     0.668559      0.975421      0.937795     Biso  1.000000 H
   H1141      1.0     0.799650      0.992934      0.034155     Biso  1.000000 H
   H1142      1.0     0.793675      0.991361      0.944185     Biso  1.000000 H
   H1143      1.0     0.774757      0.938630      0.943764     Biso  1.000000 H
   H1144      1.0     0.892016      0.020792      0.958858     Biso  1.000000 H
   H1145      1.0     0.933370      0.016860      0.036348     Biso  1.000000 H
   H1146      1.0     0.980319      0.007323      0.969480     Biso  1.000000 H
   H1147      1.0     0.897146      0.973102      0.871902     Biso  1.000000 H
   H1148      1.0     0.874522      0.938271      0.912960     Biso  1.000000 H
   H1149      1.0     0.910422      0.961361      0.026803     Biso  1.000000 H
   H1150      1.0     0.864740      0.880715      0.027006     Biso  1.000000 H
   H1151      1.0     0.047828      0.910066      0.969136     Biso  1.000000 H
   H1152      1.0     0.818041      0.885271      0.943339     Biso  1.000000 H
   H1153      1.0     0.751497      0.829170      0.069729     Biso  1.000000 H
   H1154      1.0     0.584020      0.831278      0.247751     Biso  1.000000 H
   H1155      1.0     0.716869      0.765050      0.275093     Biso  1.000000 H
   H1156      1.0     0.738576      0.803939      0.295330     Biso  1.000000 H
   H1157      1.0     0.593640      0.773290      0.271741     Biso  1.000000 H
   H1158      1.0     0.812498      0.775544      0.174948     Biso  1.000000 H
   H1159      1.0     0.741026      0.750587      0.171110     Biso  1.000000 H
   H1160      1.0     0.761748      0.775565      0.101410     Biso  1.000000 H
   H1161      1.0     0.784289      0.830532      0.189540     Biso  1.000000 H
   H1162      1.0     0.701685      0.842893      0.207109     Biso  1.000000 H
   H1163      1.0     0.650611      0.787359      0.168745     Biso  1.000000 H
   H1164      1.0     0.632064      0.812464      0.061314     Biso  1.000000 H
   H1165      1.0     0.609799      0.843134      0.117622     Biso  1.000000 H
   H1166      1.0     0.628263      0.850573      0.032905     Biso  1.000000 H
   H1167      1.0     0.786693      0.878252      0.138285     Biso  1.000000 H
   H1168      1.0     0.697461      0.886576      0.127009     Biso  1.000000 H
   H1169      1.0     0.807320      0.851470      0.993860     Biso  1.000000 H
   H1170      1.0     0.051754      0.690937      0.722857     Biso  1.000000 H
   H1171      1.0     0.001447      0.933191      0.022586     Biso  1.000000 H
   H1172      1.0     0.982441      0.939810      0.805255     Biso  1.000000 H
   H1173      1.0     0.224330      0.832142      0.686933     Biso  1.000000 H
   H1174      1.0     0.139213      0.830675      0.461499     Biso  1.000000 H
   H1175      1.0     0.172865      0.794149      0.494390     Biso  1.000000 H
   H1176      1.0     0.083071      0.797416      0.485884     Biso  1.000000 H
   H1177      1.0     0.129206      0.802086      0.663440     Biso  1.000000 H
   H1178      1.0     0.165529      0.778260      0.602211     Biso  1.000000 H
   H1179      1.0     0.083874      0.835471      0.574024     Biso  1.000000 H
   H1180      1.0     0.997140      0.795667      0.698721     Biso  1.000000 H
   H1181      1.0     0.994038      0.821807      0.629355     Biso  1.000000 H
   H1182      1.0     0.936785      0.788983      0.633279     Biso  1.000000 H
   H1183      1.0     0.083050      0.754639      0.700356     Biso  1.000000 H
   H1184      1.0     0.096622      0.734790      0.619866     Biso  1.000000 H
   H1185      1.0     0.036268      0.769836      0.559655     Biso  1.000000 H
   H1186      1.0     0.946004      0.689153      0.596302     Biso  1.000000 H
   H1187      1.0     0.979870      0.720012      0.546647     Biso  1.000000 H
   H1188      1.0     0.193764      0.860699      0.553371     Biso  1.000000 H
   H1189      1.0     0.957522      0.904740      0.979708     Biso  1.000000 H
   H1190      1.0     0.240505      0.826909      0.565629     Biso  1.000000 H
   H1191      1.0     0.276483      0.889054      0.687485     Biso  1.000000 H
   H1192      1.0     0.959764      0.906223      0.847275     Biso  1.000000 H
   H1193      1.0     0.015098      0.965515      0.917957     Biso  1.000000 H
   H1194      1.0     0.112917      0.957418      0.886069     Biso  1.000000 H
   H1195      1.0     0.173413      0.939749      0.839503     Biso  1.000000 H
   H1196      1.0     0.108714      0.960914      0.799985     Biso  1.000000 H
   H1197      1.0     0.064430      0.917588      0.725353     Biso  1.000000 H
   H1198      1.0     0.044105      0.880193      0.769550     Biso  1.000000 H
   H1199      1.0     0.083613      0.902025      0.874915     Biso  1.000000 H
   H1200      1.0     0.140558      0.857611      0.831427     Biso  1.000000 H
   H1201      1.0     0.220680      0.855797      0.799979     Biso  1.000000 H
   H1202      1.0     0.207905      0.888570      0.842581     Biso  1.000000 H
   H1203      1.0     0.136220      0.886337      0.636701     Biso  1.000000 H
   H1204      1.0     0.107046      0.857152      0.682397     Biso  1.000000 H
   H1205      1.0     0.183216      0.911584      0.742375     Biso  1.000000 H
   H1206      1.0     0.274830      0.886875      0.601360     Biso  1.000000 H
   H1207      1.0     0.332907      0.862397      0.655790     Biso  1.000000 H
   H1208      1.0     0.733784      0.626108      0.879745     Biso  1.000000 H

# Number_of_total_atoms: 1608
# Number_of_atom_type: 2
# Name_of_each_atom:  C  H
# Number_of_each_atom: 600 1208
# Created_by: Lihua Chen (lihua.chen@mse.gatech.edu)
# Tool: VASP
# K-points: 1 1 1
# Pseudopotential: PBE-HSE06
# Material_class: MC_Pol
# Geometry_class: GC_PD
# Bandgap_(eV): 6.34

# Note: average bandgap of 5 configurations
# Note:  HSE06 Band gap is derived from PBE band gap, based on Eg (HSE06)=1.140*Eg (PBE) + 0.799, R2=0.97
