#======================================================================

# Note: Amorphous region of atactic polypropylene
# Common_name: Amorphous region
#----------------------------------------------------------------------

data_VESTA_phase_1


_chemical_name_common                  'C  H                                  '
_cell_length_a                         21.84172
_cell_length_b                         50.04064
_cell_length_c                         14.91381
_cell_angle_alpha                      90
_cell_angle_beta                       90
_cell_angle_gamma                      90
_space_group_name_H-M_alt              'P 1'
_space_group_IT_number                 1

loop_
_space_group_symop_operation_xyz
   'x, y, z'

loop_
   _atom_site_label
   _atom_site_occupancy
   _atom_site_fract_x
   _atom_site_fract_y
   _atom_site_fract_z
   _atom_site_adp_type
   _atom_site_B_iso_or_equiv
   _atom_site_type_symbol
   C1         1.0     0.120733      0.764440      0.320468     Biso  1.000000 C
   C2         1.0     0.856513      0.978216      0.397565     Biso  1.000000 C
   C3         1.0     0.809282      0.967171      0.333584     Biso  1.000000 C
   C4         1.0     0.820288      0.993989      0.466414     Biso  1.000000 C
   C5         1.0     0.961243      0.004467      0.404612     Biso  1.000000 C
   C6         1.0     0.903991      0.997832      0.347497     Biso  1.000000 C
   C7         1.0     0.995879      0.024342      0.353290     Biso  1.000000 C
   C8         1.0     0.832485      0.916163      0.320616     Biso  1.000000 C
   C9         1.0     0.063503      0.984064      0.472871     Biso  1.000000 C
   C10        1.0     0.088460      0.955253      0.502655     Biso  1.000000 C
   C11        1.0     0.117784      0.024298      0.564564     Biso  1.000000 C
   C12        1.0     0.064414      0.003060      0.556351     Biso  1.000000 C
   C13        1.0     0.102492      0.044977      0.636115     Biso  1.000000 C
   C14        1.0     0.224694      0.004037      0.501750     Biso  1.000000 C
   C15        1.0     0.181012      0.012485      0.584311     Biso  1.000000 C
   C16        1.0     0.997193      0.978364      0.440921     Biso  1.000000 C
   C17        1.0     0.788606      0.939542      0.183179     Biso  1.000000 C
   C18        1.0     0.830132      0.944118      0.267517     Biso  1.000000 C
   C19        1.0     0.839051      0.971312      0.071424     Biso  1.000000 C
   C20        1.0     0.350637      0.959741      0.034204     Biso  1.000000 C
   C21        1.0     0.425535      0.997586      0.236023     Biso  1.000000 C
   C22        1.0     0.415801      0.988376      0.134178     Biso  1.000000 C
   C23        1.0     0.369014      0.009038      0.275644     Biso  1.000000 C
   C24        1.0     0.540796      0.011058      0.216042     Biso  1.000000 C
   C25        1.0     0.475023      0.019162      0.236405     Biso  1.000000 C
   C26        1.0     0.582097      0.036612      0.211160     Biso  1.000000 C
   C27        1.0     0.588846      0.964657      0.235353     Biso  1.000000 C
   C28        1.0     0.568156      0.990866      0.280579     Biso  1.000000 C
   C29        1.0     0.602632      0.942359      0.299333     Biso  1.000000 C
   C30        1.0     0.664655      0.948397      0.095630     Biso  1.000000 C
   C31        1.0     0.646062      0.969905      0.174845     Biso  1.000000 C
   C32        1.0     0.617301      0.946126      0.023851     Biso  1.000000 C
   C33        1.0     0.777251      0.962227      0.113982     Biso  1.000000 C
   C34        1.0     0.729352      0.954899      0.049572     Biso  1.000000 C
   C35        1.0     0.238828      0.030411      0.447237     Biso  1.000000 C
   C36        1.0     0.279310      0.962357      0.579027     Biso  1.000000 C
   C37        1.0     0.284850      0.990464      0.529060     Biso  1.000000 C
   C38        1.0     0.271998      0.939328      0.508422     Biso  1.000000 C
   C39        1.0     0.020814      0.868486      0.302753     Biso  1.000000 C
   C40        1.0     0.961797      0.827517      0.255146     Biso  1.000000 C
   C41        1.0     0.019399      0.839055      0.054393     Biso  1.000000 C
   C42        1.0     0.007949      0.859475      0.134037     Biso  1.000000 C
   C43        1.0     0.085305      0.828474      0.049331     Biso  1.000000 C
   C44        1.0     0.016025      0.839065      0.867867     Biso  1.000000 C
   C45        1.0     0.007733      0.852468      0.963450     Biso  1.000000 C
   C46        1.0     0.003457      0.858102      0.793875     Biso  1.000000 C
   C47        1.0     0.002065      0.789843      0.809921     Biso  1.000000 C
   C48        1.0     0.978216      0.813960      0.861182     Biso  1.000000 C
   C49        1.0     0.953213      0.769166      0.802337     Biso  1.000000 C
   C50        1.0     0.093972      0.753575      0.796718     Biso  1.000000 C
   C51        1.0     0.066154      0.779466      0.836319     Biso  1.000000 C
   C52        1.0     0.114401      0.758879      0.698125     Biso  1.000000 C
   C53        1.0     0.147539      0.736934      0.944943     Biso  1.000000 C
   C54        1.0     0.013914      0.846579      0.231859     Biso  1.000000 C
   C55        1.0     0.421382      0.938051      0.151672     Biso  1.000000 C
   C56        1.0     0.018314      0.881049      0.467748     Biso  1.000000 C
   C57        1.0     0.029788      0.858052      0.399623     Biso  1.000000 C
   C58        1.0     0.323249      0.960962      0.746422     Biso  1.000000 C
   C59        1.0     0.336018      0.959923      0.641889     Biso  1.000000 C
   C60        1.0     0.304798      0.988206      0.779016     Biso  1.000000 C
   C61        1.0     0.292509      0.910885      0.776663     Biso  1.000000 C
   C62        1.0     0.272694      0.939939      0.776395     Biso  1.000000 C
   C63        1.0     0.355806      0.905122      0.817115     Biso  1.000000 C
   C64        1.0     0.234739      0.865504      0.781786     Biso  1.000000 C
   C65        1.0     0.243292      0.892752      0.822010     Biso  1.000000 C
   C66        1.0     0.207013      0.844787      0.851191     Biso  1.000000 C
   C67        1.0     0.185123      0.844357      0.637041     Biso  1.000000 C
   C68        1.0     0.196102      0.868416      0.699781     Biso  1.000000 C
   C69        1.0     0.244482      0.833966      0.594208     Biso  1.000000 C
   C70        1.0     0.117771      0.834189      0.496406     Biso  1.000000 C
   C71        1.0     0.139129      0.854439      0.566522     Biso  1.000000 C
   C72        1.0     0.073731      0.811983      0.529121     Biso  1.000000 C
   C73        1.0     0.097726      0.848528      0.410445     Biso  1.000000 C
   C74        1.0     0.155996      0.748449      0.847899     Biso  1.000000 C
   C75        1.0     0.381321      0.961274      0.128995     Biso  1.000000 C
   C76        1.0     0.371111      0.910639      0.277388     Biso  1.000000 C
   C77        1.0     0.235481      0.165623      0.438607     Biso  1.000000 C
   C78        1.0     0.228027      0.140120      0.493550     Biso  1.000000 C
   C79        1.0     0.302413      0.170515      0.407361     Biso  1.000000 C
   C80        1.0     0.125320      0.154416      0.373996     Biso  1.000000 C
   C81        1.0     0.191876      0.164845      0.356261     Biso  1.000000 C
   C82        1.0     0.090154      0.177973      0.413845     Biso  1.000000 C
   C83        1.0     0.184624      0.110108      0.603676     Biso  1.000000 C
   C84        1.0     0.108934      0.118803      0.251070     Biso  1.000000 C
   C85        1.0     0.102062      0.095644      0.319644     Biso  1.000000 C
   C86        1.0     0.083840      0.083637      0.125448     Biso  1.000000 C
   C87        1.0     0.070009      0.112092      0.166691     Biso  1.000000 C
   C88        1.0     0.152695      0.079843      0.107719     Biso  1.000000 C
   C89        1.0     0.980367      0.077355      0.040620     Biso  1.000000 C
   C90        1.0     0.052592      0.079277      0.031045     Biso  1.000000 C
   C91        1.0     0.089957      0.145231      0.293601     Biso  1.000000 C
   C92        1.0     0.211742      0.155603      0.657813     Biso  1.000000 C
   C93        1.0     0.187706      0.139816      0.580234     Biso  1.000000 C
   C94        1.0     0.103605      0.163447      0.728272     Biso  1.000000 C
   C95        1.0     0.319165      0.080474      0.785728     Biso  1.000000 C
   C96        1.0     0.402904      0.136510      0.855778     Biso  1.000000 C
   C97        1.0     0.416213      0.105258      0.845559     Biso  1.000000 C
   C98        1.0     0.445039      0.151023      0.792789     Biso  1.000000 C
   C99        1.0     0.393042      0.175683      0.962826     Biso  1.000000 C
   C100       1.0     0.409771      0.145987      0.952017     Biso  1.000000 C
   C101       1.0     0.449548      0.192577      0.980112     Biso  1.000000 C
   C102       1.0     0.283591      0.172641      0.048486     Biso  1.000000 C
   C103       1.0     0.352464      0.181306      0.044469     Biso  1.000000 C
   C104       1.0     0.255681      0.175781      0.141668     Biso  1.000000 C
   C105       1.0     0.220679      0.162080      0.902519     Biso  1.000000 C
   C106       1.0     0.241465      0.183558      0.974372     Biso  1.000000 C
   C107       1.0     0.173810      0.144120      0.943066     Biso  1.000000 C
   C108       1.0     0.173201      0.154676      0.739127     Biso  1.000000 C
   C109       1.0     0.201120      0.173946      0.811141     Biso  1.000000 C
   C110       1.0     0.965611      0.051677      0.095462     Biso  1.000000 C
   C111       1.0     0.876433      0.079139      0.946257     Biso  1.000000 C
   C112       1.0     0.948767      0.077906      0.945198     Biso  1.000000 C
   C113       1.0     0.847324      0.100372      0.004908     Biso  1.000000 C
   C114       1.0     0.127422      0.963121      0.881465     Biso  1.000000 C
   C115       1.0     0.094247      0.007040      0.955102     Biso  1.000000 C
   C116       1.0     0.177171      0.992373      0.116557     Biso  1.000000 C
   C117       1.0     0.174121      0.978364      0.020196     Biso  1.000000 C
   C118       1.0     0.222135      0.016148      0.113767     Biso  1.000000 C
   C119       1.0     0.143776      0.948784      0.206158     Biso  1.000000 C
   C120       1.0     0.193515      0.970413      0.191729     Biso  1.000000 C
   C121       1.0     0.076748      0.957475      0.225154     Biso  1.000000 C
   C122       1.0     0.219521      0.909274      0.240750     Biso  1.000000 C
   C123       1.0     0.162955      0.926604      0.273498     Biso  1.000000 C
   C124       1.0     0.197911      0.885388      0.177809     Biso  1.000000 C
   C125       1.0     0.322315      0.889243      0.303766     Biso  1.000000 C
   C126       1.0     0.257315      0.899121      0.325001     Biso  1.000000 C
   C127       1.0     0.345669      0.875726      0.393984     Biso  1.000000 C
   C128       1.0     0.383285      0.911988      0.173350     Biso  1.000000 C
   C129       1.0     0.115298      0.978110      0.968794     Biso  1.000000 C
   C130       1.0     0.420334      0.888439      0.146140     Biso  1.000000 C
   C131       1.0     0.083373      0.939710      0.739583     Biso  1.000000 C
   C132       1.0     0.069212      0.957091      0.827240     Biso  1.000000 C
   C133       1.0     0.793541      0.069105      0.831639     Biso  1.000000 C
   C134       1.0     0.859063      0.080296      0.848127     Biso  1.000000 C
   C135       1.0     0.756932      0.087952      0.771855     Biso  1.000000 C
   C136       1.0     0.739992      0.021694      0.791783     Biso  1.000000 C
   C137       1.0     0.797781      0.039783      0.794412     Biso  1.000000 C
   C138       1.0     0.717838      0.014498      0.884825     Biso  1.000000 C
   C139       1.0     0.788235      0.974174      0.770648     Biso  1.000000 C
   C140       1.0     0.747171      0.995137      0.728117     Biso  1.000000 C
   C141       1.0     0.748865      0.951702      0.814192     Biso  1.000000 C
   C142       1.0     0.876406      0.941648      0.726703     Biso  1.000000 C
   C143       1.0     0.832046      0.963730      0.698219     Biso  1.000000 C
   C144       1.0     0.904586      0.926360      0.644182     Biso  1.000000 C
   C145       1.0     0.963752      0.930817      0.840047     Biso  1.000000 C
   C146       1.0     0.926068      0.952735      0.790342     Biso  1.000000 C
   C147       1.0     0.927290      0.913673      0.909600     Biso  1.000000 C
   C148       1.0     0.021437      0.943770      0.886253     Biso  1.000000 C
   C149       1.0     0.943676      0.108473      0.546065     Biso  1.000000 C
   C150       1.0     0.923897      0.078717      0.526606     Biso  1.000000 C
   C151       1.0     0.013923      0.111289      0.546755     Biso  1.000000 C
   C152       1.0     0.019330      0.672055      0.923339     Biso  1.000000 C
   C153       1.0     0.891835      0.688550      0.007155     Biso  1.000000 C
   C154       1.0     0.900406      0.670954      0.922306     Biso  1.000000 C
   C155       1.0     0.827980      0.684037      0.040781     Biso  1.000000 C
   C156       1.0     0.905868      0.736928      0.066898     Biso  1.000000 C
   C157       1.0     0.903968      0.718124      0.985744     Biso  1.000000 C
   C158       1.0     0.967855      0.657457      0.775503     Biso  1.000000 C
   C159       1.0     0.970533      0.740785      0.104937     Biso  1.000000 C
   C160       1.0     0.873128      0.763035      0.045032     Biso  1.000000 C
   C161       1.0     0.783254      0.774402      0.938781     Biso  1.000000 C
   C162       1.0     0.753558      0.749794      0.179042     Biso  1.000000 C
   C163       1.0     0.760160      0.770403      0.100659     Biso  1.000000 C
   C164       1.0     0.701891      0.729351      0.163962     Biso  1.000000 C
   C165       1.0     0.796783      0.783147      0.310665     Biso  1.000000 C
   C166       1.0     0.801961      0.759652      0.024830     Biso  1.000000 C
   C167       1.0     0.961692      0.674157      0.865259     Biso  1.000000 C
   C168       1.0     0.001657      0.685338      0.637899     Biso  1.000000 C
   C169       1.0     0.060390      0.643768      0.682086     Biso  1.000000 C
   C170       1.0     0.330496      0.790439      0.811611     Biso  1.000000 C
   C171       1.0     0.334644      0.740428      0.833537     Biso  1.000000 C
   C172       1.0     0.335130      0.734668      0.622216     Biso  1.000000 C
   C173       1.0     0.311780      0.757664      0.682160     Biso  1.000000 C
   C174       1.0     0.398737      0.740388      0.580046     Biso  1.000000 C
   C175       1.0     0.271431      0.698266      0.563183     Biso  1.000000 C
   C176       1.0     0.289547      0.726393      0.552696     Biso  1.000000 C
   C177       1.0     0.242948      0.687215      0.474755     Biso  1.000000 C
   C178       1.0     0.229703      0.663430      0.679572     Biso  1.000000 C
   C179       1.0     0.233096      0.692910      0.648057     Biso  1.000000 C
   C180       1.0     0.281352      0.659279      0.754596     Biso  1.000000 C
   C181       1.0     0.121951      0.648658      0.641158     Biso  1.000000 C
   C182       1.0     0.165193      0.658806      0.717020     Biso  1.000000 C
   C183       1.0     0.142938      0.622459      0.594825     Biso  1.000000 C
   C184       1.0     0.018529      0.667195      0.712695     Biso  1.000000 C
   C185       1.0     0.744708      0.762580      0.275423     Biso  1.000000 C
   C186       1.0     0.861224      0.770775      0.321038     Biso  1.000000 C
   C187       1.0     0.811873      0.817057      0.440069     Biso  1.000000 C
   C188       1.0     0.771973      0.796042      0.395379     Biso  1.000000 C
   C189       1.0     0.482655      0.806630      0.233442     Biso  1.000000 C
   C190       1.0     0.511132      0.827567      0.169816     Biso  1.000000 C
   C191       1.0     0.496120      0.810946      0.334455     Biso  1.000000 C
   C192       1.0     0.381683      0.777481      0.243540     Biso  1.000000 C
   C193       1.0     0.411690      0.803476      0.204321     Biso  1.000000 C
   C194       1.0     0.310214      0.780753      0.260671     Biso  1.000000 C
   C195       1.0     0.385799      0.725432      0.226683     Biso  1.000000 C
   C196       1.0     0.392813      0.753707      0.181725     Biso  1.000000 C
   C197       1.0     0.325323      0.715110      0.252411     Biso  1.000000 C
   C198       1.0     0.500840      0.722766      0.290349     Biso  1.000000 C
   C199       1.0     0.429037      0.721469      0.308211     Biso  1.000000 C
   C200       1.0     0.521338      0.698546      0.236982     Biso  1.000000 C
   C201       1.0     0.598905      0.736994      0.372735     Biso  1.000000 C
   C202       1.0     0.532317      0.726299      0.379166     Biso  1.000000 C
   C203       1.0     0.630047      0.740290      0.463215     Biso  1.000000 C
   C204       1.0     0.554806      0.800693      0.042538     Biso  1.000000 C
   C205       1.0     0.346351      0.762058      0.769998     Biso  1.000000 C
   C206       1.0     0.617662      0.840320      0.104474     Biso  1.000000 C
   C207       1.0     0.661903      0.852249      0.254643     Biso  1.000000 C
   C208       1.0     0.819959      0.842577      0.383148     Biso  1.000000 C
   C209       1.0     0.831570      0.845180      0.582031     Biso  1.000000 C
   C210       1.0     0.791051      0.823482      0.538266     Biso  1.000000 C
   C211       1.0     0.899829      0.835944      0.588033     Biso  1.000000 C
   C212       1.0     0.747776      0.867512      0.689952     Biso  1.000000 C
   C213       1.0     0.809735      0.853128      0.680034     Biso  1.000000 C
   C214       1.0     0.736957      0.892074      0.633085     Biso  1.000000 C
   C215       1.0     0.732191      0.851603      0.855201     Biso  1.000000 C
   C216       1.0     0.731719      0.874676      0.785494     Biso  1.000000 C
   C217       1.0     0.678610      0.833050      0.841201     Biso  1.000000 C
   C218       1.0     0.750111      0.844017      0.026064     Biso  1.000000 C
   C219       1.0     0.729659      0.864005      0.954042     Biso  1.000000 C
   C220       1.0     0.819515      0.841010      0.023341     Biso  1.000000 C
   C221       1.0     0.676490      0.838112      0.165290     Biso  1.000000 C
   C222       1.0     0.726967      0.854077      0.121505     Biso  1.000000 C
   C223       1.0     0.571759      0.817509      0.125971     Biso  1.000000 C
   C224       1.0     0.352312      0.810816      0.963597     Biso  1.000000 C
   C225       1.0     0.410238      0.828148      0.826710     Biso  1.000000 C
   C226       1.0     0.381065      0.802993      0.873003     Biso  1.000000 C
   C227       1.0     0.304239      0.278813      0.753658     Biso  1.000000 C
   C228       1.0     0.393710      0.245928      0.761771     Biso  1.000000 C
   C229       1.0     0.469327      0.295407      0.853424     Biso  1.000000 C
   C230       1.0     0.409680      0.295967      0.796061     Biso  1.000000 C
   C231       1.0     0.496376      0.323848      0.845847     Biso  1.000000 C
   C232       1.0     0.515757      0.282488      0.015489     Biso  1.000000 C
   C233       1.0     0.457052      0.287528      0.952198     Biso  1.000000 C
   C234       1.0     0.498546      0.282198      0.117636     Biso  1.000000 C
   C235       1.0     0.613249      0.251877      0.035028     Biso  1.000000 C
   C236       1.0     0.551358      0.256717      0.984490     Biso  1.000000 C
   C237       1.0     0.658424      0.275114      0.031052     Biso  1.000000 C
   C238       1.0     0.642120      0.201907      0.056170     Biso  1.000000 C
   C239       1.0     0.643800      0.225562      0.993261     Biso  1.000000 C
   C240       1.0     0.691022      0.200109      0.131529     Biso  1.000000 C
   C241       1.0     0.624191      0.149978      0.053380     Biso  1.000000 C
   C242       1.0     0.363795      0.271543      0.797027     Biso  1.000000 C
   C243       1.0     0.638512      0.176728      0.004137     Biso  1.000000 C
   C244       1.0     0.229094      0.257492      0.862282     Biso  1.000000 C
   C245       1.0     0.251862      0.258128      0.763729     Biso  1.000000 C
   C246       1.0     0.917639      0.149862      0.644718     Biso  1.000000 C
   C247       1.0     0.908088      0.119472      0.627318     Biso  1.000000 C
   C248       1.0     0.895209      0.154568      0.742171     Biso  1.000000 C
   C249       1.0     0.885059      0.196132      0.572141     Biso  1.000000 C
   C250       1.0     0.875367      0.165209      0.576976     Biso  1.000000 C
   C251       1.0     0.829789      0.209741      0.523307     Biso  1.000000 C
   C252       1.0     0.968161      0.231699      0.529536     Biso  1.000000 C
   C253       1.0     0.947609      0.203330      0.527156     Biso  1.000000 C
   C254       1.0     0.023790      0.235092      0.464013     Biso  1.000000 C
   C255       1.0     0.035849      0.233036      0.676970     Biso  1.000000 C
   C256       1.0     0.978298      0.242396      0.624643     Biso  1.000000 C
   C257       1.0     0.019440      0.224961      0.774249     Biso  1.000000 C
   C258       1.0     0.152035      0.243623      0.685586     Biso  1.000000 C
   C259       1.0     0.089389      0.252800      0.672062     Biso  1.000000 C
   C260       1.0     0.174662      0.224919      0.611159     Biso  1.000000 C
   C261       1.0     0.197650      0.266099      0.700036     Biso  1.000000 C
   C262       1.0     0.371565      0.061204      0.916071     Biso  1.000000 C
   C263       1.0     0.632620      0.126459      0.977490     Biso  1.000000 C
   C264       1.0     0.562410      0.149820      0.103079     Biso  1.000000 C
   C265       1.0     0.551724      0.969054      0.638006     Biso  1.000000 C
   C266       1.0     0.562200      0.975712      0.733803     Biso  1.000000 C
   C267       1.0     0.606734      0.971578      0.576265     Biso  1.000000 C
   C268       1.0     0.527358      0.916145      0.647085     Biso  1.000000 C
   C269       1.0     0.505332      0.944871      0.626493     Biso  1.000000 C
   C270       1.0     0.558143      0.912312      0.735862     Biso  1.000000 C
   C271       1.0     0.560959      0.871991      0.560105     Biso  1.000000 C
   C272       1.0     0.564901      0.902831      0.568762     Biso  1.000000 C
   C273       1.0     0.604138      0.858721      0.496922     Biso  1.000000 C
   C274       1.0     0.471506      0.837453      0.588663     Biso  1.000000 C
   C275       1.0     0.496243      0.862266      0.534961     Biso  1.000000 C
   C276       1.0     0.411447      0.826018      0.546681     Biso  1.000000 C
   C277       1.0     0.447951      0.821891      0.744585     Biso  1.000000 C
   C278       1.0     0.458678      0.846697      0.685351     Biso  1.000000 C
   C279       1.0     0.508500      0.808576      0.772016     Biso  1.000000 C
   C280       1.0     0.502319      0.985964      0.879816     Biso  1.000000 C
   C281       1.0     0.542902      0.123139      0.146770     Biso  1.000000 C
   C282       1.0     0.535553      0.023744      0.774584     Biso  1.000000 C
   C283       1.0     0.565611      0.068624      0.709269     Biso  1.000000 C
   C284       1.0     0.590352      0.114067      0.210349     Biso  1.000000 C
   C285       1.0     0.442369      0.101955      0.212917     Biso  1.000000 C
   C286       1.0     0.481039      0.126533      0.189777     Biso  1.000000 C
   C287       1.0     0.416900      0.087732      0.125387     Biso  1.000000 C
   C288       1.0     0.358177      0.084009      0.315098     Biso  1.000000 C
   C289       1.0     0.388010      0.109243      0.273318     Biso  1.000000 C
   C290       1.0     0.293540      0.079387      0.272982     Biso  1.000000 C
   C291       1.0     0.402061      0.088865      0.473769     Biso  1.000000 C
   C292       1.0     0.344795      0.089703      0.414402     Biso  1.000000 C
   C293       1.0     0.405147      0.114243      0.534800     Biso  1.000000 C
   C294       1.0     0.474331      0.055954      0.554185     Biso  1.000000 C
   C295       1.0     0.409263      0.063678      0.535423     Biso  1.000000 C
   C296       1.0     0.508312      0.040451      0.477175     Biso  1.000000 C
   C297       1.0     0.541336      0.040093      0.686612     Biso  1.000000 C
   C298       1.0     0.478401      0.041656      0.646321     Biso  1.000000 C
   C299       1.0     0.516210      0.994241      0.778775     Biso  1.000000 C
   C300       1.0     0.359285      0.088707      0.868813     Biso  1.000000 C
   C301       1.0     0.205662      0.735322      0.000094     Biso  1.000000 C
   C302       1.0     0.862776      0.265376      0.912390     Biso  1.000000 C
   C303       1.0     0.326870      0.296898      0.380433     Biso  1.000000 C
   C304       1.0     0.343380      0.307200      0.474889     Biso  1.000000 C
   C305       1.0     0.326719      0.320381      0.307018     Biso  1.000000 C
   C306       1.0     0.376372      0.248979      0.405738     Biso  1.000000 C
   C307       1.0     0.365434      0.273781      0.340731     Biso  1.000000 C
   C308       1.0     0.317627      0.237646      0.442664     Biso  1.000000 C
   C309       1.0     0.334924      0.341054      0.605171     Biso  1.000000 C
   C310       1.0     0.455899      0.208804      0.424842     Biso  1.000000 C
   C311       1.0     0.484221      0.185123      0.365038     Biso  1.000000 C
   C312       1.0     0.545429      0.206244      0.548029     Biso  1.000000 C
   C313       1.0     0.505895      0.222594      0.484424     Biso  1.000000 C
   C314       1.0     0.503262      0.192153      0.615846     Biso  1.000000 C
   C315       1.0     0.642615      0.205015      0.650632     Biso  1.000000 C
   C316       1.0     0.591291      0.222153      0.601832     Biso  1.000000 C
   C317       1.0     0.416996      0.227974      0.361122     Biso  1.000000 C
   C318       1.0     0.237647      0.327233      0.524460     Biso  1.000000 C
   C319       1.0     0.306519      0.332739      0.515020     Biso  1.000000 C
   C320       1.0     0.125966      0.342681      0.531105     Biso  1.000000 C
   C321       1.0     0.309074      0.552472      0.234924     Biso  1.000000 C
   C322       1.0     0.197380      0.528913      0.362483     Biso  1.000000 C
   C323       1.0     0.199939      0.550286      0.285447     Biso  1.000000 C
   C324       1.0     0.180975      0.542572      0.450462     Biso  1.000000 C
   C325       1.0     0.124386      0.485103      0.397230     Biso  1.000000 C
   C326       1.0     0.151957      0.506002      0.329661     Biso  1.000000 C
   C327       1.0     0.090204      0.463391      0.339109     Biso  1.000000 C
   C328       1.0     0.152928      0.452943      0.525399     Biso  1.000000 C
   C329       1.0     0.175788      0.470557      0.449791     Biso  1.000000 C
   C330       1.0     0.149316      0.472282      0.607457     Biso  1.000000 C
   C331       1.0     0.177853      0.402920      0.489258     Biso  1.000000 C
   C332       1.0     0.191158      0.428061      0.541747     Biso  1.000000 C
   C333       1.0     0.196125      0.404597      0.388808     Biso  1.000000 C
   C334       1.0     0.194056      0.350073      0.499665     Biso  1.000000 C
   C335       1.0     0.209732      0.378530      0.531662     Biso  1.000000 C
   C336       1.0     0.688119      0.221891      0.703858     Biso  1.000000 C
   C337       1.0     0.649958      0.155167      0.592840     Biso  1.000000 C
   C338       1.0     0.676458      0.183642      0.589695     Biso  1.000000 C
   C339       1.0     0.656725      0.141261      0.682455     Biso  1.000000 C
   C340       1.0     0.037520      0.215155      0.166604     Biso  1.000000 C
   C341       1.0     0.071666      0.220676      0.004754     Biso  1.000000 C
   C342       1.0     0.106640      0.271763      0.206158     Biso  1.000000 C
   C343       1.0     0.112542      0.253827      0.127641     Biso  1.000000 C
   C344       1.0     0.166567      0.285140      0.231926     Biso  1.000000 C
   C345       1.0     0.048756      0.317024      0.241669     Biso  1.000000 C
   C346       1.0     0.061333      0.293929      0.175080     Biso  1.000000 C
   C347       1.0     0.094929      0.339479      0.223216     Biso  1.000000 C
   C348       1.0     0.933407      0.309630      0.291737     Biso  1.000000 C
   C349       1.0     0.982812      0.328035      0.244807     Biso  1.000000 C
   C350       1.0     0.952128      0.301578      0.385904     Biso  1.000000 C
   C351       1.0     0.831391      0.314164      0.207405     Biso  1.000000 C
   C352       1.0     0.870687      0.323758      0.287016     Biso  1.000000 C
   C353       1.0     0.779875      0.332517      0.183039     Biso  1.000000 C
   C354       1.0     0.756122      0.279572      0.280271     Biso  1.000000 C
   C355       1.0     0.059721      0.234729      0.093343     Biso  1.000000 C
   C356       1.0     0.245824      0.545410      0.208163     Biso  1.000000 C
   C357       1.0     0.934034      0.231873      0.200814     Biso  1.000000 C
   C358       1.0     0.970089      0.207823      0.166242     Biso  1.000000 C
   C359       1.0     0.635761      0.113038      0.489781     Biso  1.000000 C
   C360       1.0     0.669581      0.139096      0.505149     Biso  1.000000 C
   C361       1.0     0.568536      0.117886      0.459789     Biso  1.000000 C
   C362       1.0     0.724527      0.078917      0.460795     Biso  1.000000 C
   C363       1.0     0.665159      0.091829      0.428918     Biso  1.000000 C
   C364       1.0     0.711638      0.057818      0.529791     Biso  1.000000 C
   C365       1.0     0.779321      0.084197      0.307065     Biso  1.000000 C
   C366       1.0     0.755619      0.064995      0.381077     Biso  1.000000 C
   C367       1.0     0.813760      0.066693      0.237599     Biso  1.000000 C
   C368       1.0     0.821470      0.131624      0.283006     Biso  1.000000 C
   C369       1.0     0.824551      0.105414      0.341207     Biso  1.000000 C
   C370       1.0     0.763242      0.151256      0.293969     Biso  1.000000 C
   C371       1.0     0.895456      0.166918      0.202095     Biso  1.000000 C
   C372       1.0     0.884853      0.146504      0.281994     Biso  1.000000 C
   C373       1.0     0.891734      0.152975      0.110690     Biso  1.000000 C
   C374       1.0     0.956157      0.181780      0.225328     Biso  1.000000 C
   C375       1.0     0.281508      0.523572      0.023153     Biso  1.000000 C
   C376       1.0     0.216014      0.559197      0.960861     Biso  1.000000 C
   C377       1.0     0.260667      0.552624      0.037804     Biso  1.000000 C
   C378       1.0     0.356401      0.627281      0.085947     Biso  1.000000 C
   C379       1.0     0.425951      0.633528      0.220340     Biso  1.000000 C
   C380       1.0     0.521145      0.595212      0.081716     Biso  1.000000 C
   C381       1.0     0.452465      0.595559      0.104809     Biso  1.000000 C
   C382       1.0     0.543552      0.568597      0.117200     Biso  1.000000 C
   C383       1.0     0.537783      0.624714      0.935375     Biso  1.000000 C
   C384       1.0     0.532532      0.597008      0.978074     Biso  1.000000 C
   C385       1.0     0.540951      0.623601      0.832323     Biso  1.000000 C
   C386       1.0     0.604554      0.669939      0.930882     Biso  1.000000 C
   C387       1.0     0.590577      0.641114      0.972408     Biso  1.000000 C
   C388       1.0     0.665900      0.680706      0.965267     Biso  1.000000 C
   C389       1.0     0.547924      0.717740      0.918283     Biso  1.000000 C
   C390       1.0     0.550525      0.689041      0.958649     Biso  1.000000 C
   C391       1.0     0.502122      0.735194      0.963912     Biso  1.000000 C
   C392       1.0     0.584272      0.714133      0.746550     Biso  1.000000 C
   C393       1.0     0.423062      0.623814      0.121431     Biso  1.000000 C
   C394       1.0     0.531259      0.715056      0.816854     Biso  1.000000 C
   C395       1.0     0.383807      0.673584      0.015583     Biso  1.000000 C
   C396       1.0     0.335881      0.656804      0.072678     Biso  1.000000 C
   C397       1.0     0.833236      0.220508      0.976954     Biso  1.000000 C
   C398       1.0     0.154860      0.776520      0.238913     Biso  1.000000 C
   C399       1.0     0.166933      0.756640      0.386810     Biso  1.000000 C
   C400       1.0     0.061250      0.719796      0.358708     Biso  1.000000 C
   C401       1.0     0.085772      0.739336      0.286131     Biso  1.000000 C
   C402       1.0     0.021505      0.733385      0.433733     Biso  1.000000 C
   C403       1.0     0.066099      0.678864      0.247777     Biso  1.000000 C
   C404       1.0     0.031427      0.694367      0.325149     Biso  1.000000 C
   C405       1.0     0.020709      0.659689      0.205085     Biso  1.000000 C
   C406       1.0     0.162822      0.648099      0.226629     Biso  1.000000 C
   C407       1.0     0.125160      0.665241      0.288625     Biso  1.000000 C
   C408       1.0     0.214773      0.632090      0.282309     Biso  1.000000 C
   C409       1.0     0.217415      0.645421      0.069915     Biso  1.000000 C
   C410       1.0     0.189473      0.664845      0.147528     Biso  1.000000 C
   C411       1.0     0.172107      0.640423      0.996601     Biso  1.000000 C
   C412       1.0     0.275807      0.658518      0.027042     Biso  1.000000 C
   C413       1.0     0.809543      0.284120      0.213420     Biso  1.000000 C
   C414       1.0     0.561316      0.705036      0.653589     Biso  1.000000 C
   C415       1.0     0.612209      0.743573      0.743942     Biso  1.000000 C
   C416       1.0     0.851440      0.567360      0.836661     Biso  1.000000 C
   C417       1.0     0.827362      0.596197      0.823780     Biso  1.000000 C
   C418       1.0     0.795318      0.549866      0.870851     Biso  1.000000 C
   C419       1.0     0.965854      0.575889      0.847396     Biso  1.000000 C
   C420       1.0     0.908285      0.567622      0.899241     Biso  1.000000 C
   C421       1.0     0.011277      0.586641      0.916386     Biso  1.000000 C
   C422       1.0     0.039553      0.562620      0.717791     Biso  1.000000 C
   C423       1.0     0.992701      0.552173      0.788558     Biso  1.000000 C
   C424       1.0     0.006479      0.570690      0.628063     Biso  1.000000 C
   C425       1.0     0.139147      0.543430      0.784957     Biso  1.000000 C
   C426       1.0     0.095707      0.545094      0.699848     Biso  1.000000 C
   C427       1.0     0.167075      0.515918      0.792380     Biso  1.000000 C
   C428       1.0     0.237816      0.561005      0.863180     Biso  1.000000 C
   C429       1.0     0.180206      0.567094      0.796510     Biso  1.000000 C
   C430       1.0     0.281494      0.582672      0.849361     Biso  1.000000 C
   C431       1.0     0.764038      0.627843      0.727796     Biso  1.000000 C
   C432       1.0     0.675309      0.743093      0.697535     Biso  1.000000 C
   C433       1.0     0.836084      0.595298      0.646864     Biso  1.000000 C
   C434       1.0     0.758347      0.573879      0.533687     Biso  1.000000 C
   C435       1.0     0.695349      0.771065      0.661280     Biso  1.000000 C
   C436       1.0     0.784861      0.718771      0.690749     Biso  1.000000 C
   C437       1.0     0.726939      0.727704      0.746745     Biso  1.000000 C
   C438       1.0     0.826996      0.704215      0.756447     Biso  1.000000 C
   C439       1.0     0.822733      0.694259      0.547338     Biso  1.000000 C
   C440       1.0     0.768763      0.700648      0.607719     Biso  1.000000 C
   C441       1.0     0.853601      0.722098      0.516998     Biso  1.000000 C
   C442       1.0     0.853495      0.671224      0.394829     Biso  1.000000 C
   C443       1.0     0.802007      0.680670      0.457590     Biso  1.000000 C
   C444       1.0     0.846463      0.684337      0.303370     Biso  1.000000 C
   C445       1.0     0.887005      0.624330      0.459896     Biso  1.000000 C
   C446       1.0     0.856334      0.640799      0.385341     Biso  1.000000 C
   C447       1.0     0.958913      0.624092      0.449557     Biso  1.000000 C
   C448       1.0     0.804053      0.597776      0.549451     Biso  1.000000 C
   C449       1.0     0.853670      0.597626      0.471429     Biso  1.000000 C
   C450       1.0     0.791541      0.599584      0.729579     Biso  1.000000 C
   C451       1.0     0.760939      0.255871      0.341784     Biso  1.000000 C
   C452       1.0     0.222433      0.557844      0.123262     Biso  1.000000 C
   C453       1.0     0.870367      0.234629      0.905711     Biso  1.000000 C
   C454       1.0     0.771208      0.409890      0.288766     Biso  1.000000 C
   C455       1.0     0.699117      0.461384      0.349562     Biso  1.000000 C
   C456       1.0     0.758173      0.460651      0.296102     Biso  1.000000 C
   C457       1.0     0.711762      0.464784      0.446600     Biso  1.000000 C
   C458       1.0     0.589579      0.473960      0.306703     Biso  1.000000 C
   C459       1.0     0.656377      0.483736      0.311718     Biso  1.000000 C
   C460       1.0     0.859818      0.444638      0.266720     Biso  1.000000 C
   C461       1.0     0.579863      0.452717      0.235306     Biso  1.000000 C
   C462       1.0     0.544651      0.497631      0.298087     Biso  1.000000 C
   C463       1.0     0.446165      0.517733      0.291656     Biso  1.000000 C
   C464       1.0     0.409927      0.467869      0.435590     Biso  1.000000 C
   C465       1.0     0.467555      0.485904      0.419846     Biso  1.000000 C
   C466       1.0     0.351813      0.480865      0.465669     Biso  1.000000 C
   C467       1.0     0.442873      0.418975      0.465978     Biso  1.000000 C
   C468       1.0     0.478328      0.492531      0.319818     Biso  1.000000 C
   C469       1.0     0.799571      0.437392      0.314414     Biso  1.000000 C
   C470       1.0     0.937559      0.427742      0.373802     Biso  1.000000 C
   C471       1.0     0.966962      0.426749      0.206219     Biso  1.000000 C
   C472       1.0     0.940403      0.589045      0.178915     Biso  1.000000 C
   C473       1.0     0.998050      0.559373      0.277106     Biso  1.000000 C
   C474       1.0     0.003018      0.515880      0.131711     Biso  1.000000 C
   C475       1.0     0.992079      0.546985      0.118273     Biso  1.000000 C
   C476       1.0     0.942889      0.501198      0.124167     Biso  1.000000 C
   C477       1.0     0.082778      0.479244      0.090480     Biso  1.000000 C
   C478       1.0     0.056516      0.506961      0.066603     Biso  1.000000 C
   C479       1.0     0.155084      0.480471      0.089649     Biso  1.000000 C
   C480       1.0     0.064615      0.428343      0.060340     Biso  1.000000 C
   C481       1.0     0.057899      0.457438      0.025929     Biso  1.000000 C
   C482       1.0     0.114959      0.413789      0.011909     Biso  1.000000 C
   C483       1.0     0.946267      0.419532      0.107827     Biso  1.000000 C
   C484       1.0     0.003984      0.411913      0.052475     Biso  1.000000 C
   C485       1.0     0.896720      0.396255      0.101731     Biso  1.000000 C
   C486       1.0     0.913156      0.424594      0.278648     Biso  1.000000 C
   C487       1.0     0.388596      0.403102      0.430762     Biso  1.000000 C
   C488       1.0     0.547183      0.414289      0.541109     Biso  1.000000 C
   C489       1.0     0.482847      0.402344      0.531575     Biso  1.000000 C
   C490       1.0     0.580156      0.407027      0.454063     Biso  1.000000 C
   C491       1.0     0.251048      0.364895      0.085961     Biso  1.000000 C
   C492       1.0     0.282487      0.321524      0.018775     Biso  1.000000 C
   C493       1.0     0.181122      0.337673      0.856770     Biso  1.000000 C
   C494       1.0     0.188855      0.348998      0.954914     Biso  1.000000 C
   C495       1.0     0.226091      0.350311      0.788062     Biso  1.000000 C
   C496       1.0     0.065769      0.323247      0.876979     Biso  1.000000 C
   C497       1.0     0.112734      0.336822      0.818195     Biso  1.000000 C
   C498       1.0     0.084586      0.297050      0.917640     Biso  1.000000 C
   C499       1.0     0.944697      0.322243      0.898255     Biso  1.000000 C
   C500       1.0     0.002862      0.318964      0.835172     Biso  1.000000 C
   C501       1.0     0.938942      0.351386      0.929005     Biso  1.000000 C
   C502       1.0     0.881140      0.282584      0.828642     Biso  1.000000 C
   C503       1.0     0.884944      0.313205      0.852257     Biso  1.000000 C
   C504       1.0     0.840520      0.278451      0.746583     Biso  1.000000 C
   C505       1.0     0.920798      0.491006      0.524581     Biso  1.000000 C
   C506       1.0     0.254326      0.349010      0.996680     Biso  1.000000 C
   C507       1.0     0.960543      0.559587      0.196308     Biso  1.000000 C
   C508       1.0     0.365457      0.376202      0.128700     Biso  1.000000 C
   C509       1.0     0.300664      0.387600      0.100572     Biso  1.000000 C
   C510       1.0     0.552974      0.410412      0.715914     Biso  1.000000 C
   C511       1.0     0.581456      0.404363      0.620948     Biso  1.000000 C
   C512       1.0     0.604577      0.410284      0.785762     Biso  1.000000 C
   C513       1.0     0.437805      0.405466      0.772533     Biso  1.000000 C
   C514       1.0     0.500556      0.392486      0.746255     Biso  1.000000 C
   C515       1.0     0.384673      0.384017      0.789181     Biso  1.000000 C
   C516       1.0     0.382457      0.439610      0.874894     Biso  1.000000 C
   C517       1.0     0.441001      0.422430      0.858768     Biso  1.000000 C
   C518       1.0     0.359789      0.455847      0.793252     Biso  1.000000 C
   C519       1.0     0.394077      0.445931      0.045247     Biso  1.000000 C
   C520       1.0     0.391142      0.459514      0.953901     Biso  1.000000 C
   C521       1.0     0.455615      0.452152      0.088314     Biso  1.000000 C
   C522       1.0     0.322086      0.435931      0.181859     Biso  1.000000 C
   C523       1.0     0.334434      0.452817      0.098835     Biso  1.000000 C
   C524       1.0     0.291809      0.454818      0.252149     Biso  1.000000 C
   C525       1.0     0.277643      0.411753      0.159631     Biso  1.000000 C
   C526       1.0     0.862263      0.616027      0.091935     Biso  1.000000 C
   C527       1.0     0.421121      0.446287      0.505337     Biso  1.000000 C
   C528       1.0     0.874464      0.589982      0.142137     Biso  1.000000 C
   C529       1.0     0.521873      0.296217      0.608329     Biso  1.000000 C
   C530       1.0     0.578792      0.319825      0.380084     Biso  1.000000 C
   C531       1.0     0.548474      0.320821      0.471932     Biso  1.000000 C
   C532       1.0     0.586305      0.291808      0.338894     Biso  1.000000 C
   C533       1.0     0.582477      0.350359      0.237592     Biso  1.000000 C
   C534       1.0     0.545081      0.339551      0.318209     Biso  1.000000 C
   C535       1.0     0.633467      0.368524      0.272419     Biso  1.000000 C
   C536       1.0     0.587312      0.373720      0.080925     Biso  1.000000 C
   C537       1.0     0.546052      0.362347      0.158055     Biso  1.000000 C
   C538       1.0     0.549032      0.383710      0.005887     Biso  1.000000 C
   C539       1.0     0.687501      0.365249      0.978322     Biso  1.000000 C
   C540       1.0     0.635912      0.353012      0.039863     Biso  1.000000 C
   C541       1.0     0.730318      0.343566      0.938660     Biso  1.000000 C
   C542       1.0     0.729421      0.413252      0.960868     Biso  1.000000 C
   C543       1.0     0.726335      0.388685      0.017702     Biso  1.000000 C
   C544       1.0     0.620904      0.316134      0.604762     Biso  1.000000 C
   C545       1.0     0.770150      0.410412      0.875665     Biso  1.000000 C
   C546       1.0     0.572410      0.301882      0.546172     Biso  1.000000 C
   C547       1.0     0.730273      0.335918      0.631315     Biso  1.000000 C
   C548       1.0     0.956271      0.500764      0.440096     Biso  1.000000 C
   C549       1.0     0.826822      0.585647      0.217933     Biso  1.000000 C
   C550       1.0     0.930843      0.464838      0.678814     Biso  1.000000 C
   C551       1.0     0.962869      0.479334      0.595066     Biso  1.000000 C
   C552       1.0     0.913779      0.484829      0.753362     Biso  1.000000 C
   C553       1.0     0.961724      0.414768      0.685198     Biso  1.000000 C
   C554       1.0     0.966605      0.443205      0.724302     Biso  1.000000 C
   C555       1.0     0.013988      0.397618      0.730954     Biso  1.000000 C
   C556       1.0     0.878205      0.379017      0.631241     Biso  1.000000 C
   C557       1.0     0.898432      0.401185      0.701739     Biso  1.000000 C
   C558       1.0     0.926319      0.356971      0.608718     Biso  1.000000 C
   C559       1.0     0.780575      0.351518      0.587087     Biso  1.000000 C
   C560       1.0     0.818274      0.366080      0.658484     Biso  1.000000 C
   C561       1.0     0.750527      0.372992      0.525513     Biso  1.000000 C
   C562       1.0     0.685661      0.320103      0.573717     Biso  1.000000 C
   C563       1.0     0.719362      0.294396      0.551925     Biso  1.000000 C
   C564       1.0     0.752780      0.465019      0.970128     Biso  1.000000 C
   C565       1.0     0.877321      0.510147      0.561728     Biso  1.000000 C
   C566       1.0     0.806938      0.479971      0.014215     Biso  1.000000 C
   C567       1.0     0.439906      0.632735      0.535732     Biso  1.000000 C
   C568       1.0     0.384517      0.623041      0.584049     Biso  1.000000 C
   C569       1.0     0.438267      0.662433      0.497539     Biso  1.000000 C
   C570       1.0     0.563358      0.633712      0.540828     Biso  1.000000 C
   C571       1.0     0.500620      0.630041      0.592055     Biso  1.000000 C
   C572       1.0     0.618995      0.631412      0.602268     Biso  1.000000 C
   C573       1.0     0.626261      0.622751      0.392247     Biso  1.000000 C
   C574       1.0     0.567057      0.617637      0.450087     Biso  1.000000 C
   C575       1.0     0.631746      0.652007      0.370878     Biso  1.000000 C
   C576       1.0     0.692945      0.606249      0.256715     Biso  1.000000 C
   C577       1.0     0.626970      0.606820      0.305093     Biso  1.000000 C
   C578       1.0     0.691411      0.626374      0.172827     Biso  1.000000 C
   C579       1.0     0.767660      0.570428      0.181249     Biso  1.000000 C
   C580       1.0     0.708905      0.576863      0.231169     Biso  1.000000 C
   C581       1.0     0.754057      0.437270      0.016166     Biso  1.000000 C
   C582       1.0     0.331343      0.606035      0.436187     Biso  1.000000 C
   C583       1.0     0.376143      0.573331      0.545173     Biso  1.000000 C
   C584       1.0     0.781047      0.539165      0.185687     Biso  1.000000 C
   C585       1.0     0.300641      0.549029      0.635794     Biso  1.000000 C
   C586       1.0     0.347624      0.600835      0.536872     Biso  1.000000 C
   C587       1.0     0.651561      0.478772      0.896954     Biso  1.000000 C
   C588       1.0     0.694868      0.481564      0.978389     Biso  1.000000 C
   C589       1.0     0.587070      0.477489      0.931781     Biso  1.000000 C
   C590       1.0     0.650650      0.489961      0.726340     Biso  1.000000 C
   C591       1.0     0.700975      0.470547      0.693197     Biso  1.000000 C
   C592       1.0     0.592243      0.530960      0.655111     Biso  1.000000 C
   C593       1.0     0.660470      0.500686      0.823358     Biso  1.000000 C
   C594       1.0     0.591703      0.546090      0.563465     Biso  1.000000 C
   C595       1.0     0.474862      0.541869      0.687403     Biso  1.000000 C
   C596       1.0     0.524309      0.520239      0.678479     Biso  1.000000 C
   C597       1.0     0.466910      0.553388      0.786097     Biso  1.000000 C
   C598       1.0     0.366785      0.558000      0.632461     Biso  1.000000 C
   C599       1.0     0.412221      0.534053      0.645603     Biso  1.000000 C
   C600       1.0     0.641021      0.508990      0.649640     Biso  1.000000 C
   H1         1.0     0.878269      0.016060      0.329661     Biso  1.000000 H
   H2         1.0     0.967713      0.040576      0.328086     Biso  1.000000 H
   H3         1.0     0.027448      0.035027      0.394366     Biso  1.000000 H
   H4         1.0     0.016268      0.017102      0.293084     Biso  1.000000 H
   H5         1.0     0.924360      0.988698      0.284301     Biso  1.000000 H
   H6         1.0     0.942032      0.017497      0.458911     Biso  1.000000 H
   H7         1.0     0.857318      0.900565      0.289021     Biso  1.000000 H
   H8         1.0     0.799644      0.012695      0.444427     Biso  1.000000 H
   H9         1.0     0.782375      0.980998      0.481581     Biso  1.000000 H
   H10        1.0     0.795116      0.985526      0.293433     Biso  1.000000 H
   H11        1.0     0.768498      0.960659      0.360398     Biso  1.000000 H
   H12        1.0     0.880668      0.960169      0.431540     Biso  1.000000 H
   H13        1.0     0.786079      0.911117      0.339344     Biso  1.000000 H
   H14        1.0     0.238686      0.964244      0.616328     Biso  1.000000 H
   H15        1.0     0.847823      0.998427      0.526077     Biso  1.000000 H
   H16        1.0     0.090167      0.991891      0.417177     Biso  1.000000 H
   H17        1.0     0.025905      0.015873      0.546574     Biso  1.000000 H
   H18        1.0     0.972666      0.968732      0.494079     Biso  1.000000 H
   H19        1.0     0.858358      0.921482      0.383189     Biso  1.000000 H
   H20        1.0     0.279516      0.029771      0.408608     Biso  1.000000 H
   H21        1.0     0.203414      0.032787      0.394487     Biso  1.000000 H
   H22        1.0     0.243383      0.047569      0.492731     Biso  1.000000 H
   H23        1.0     0.210895      0.024805      0.629156     Biso  1.000000 H
   H24        1.0     0.173224      0.993931      0.622128     Biso  1.000000 H
   H25        1.0     0.198401      0.989815      0.461197     Biso  1.000000 H
   H26        1.0     0.144270      0.058528      0.638214     Biso  1.000000 H
   H27        1.0     0.061026      0.055896      0.625716     Biso  1.000000 H
   H28        1.0     0.102442      0.036360      0.703134     Biso  1.000000 H
   H29        1.0     0.051604      0.992583      0.614377     Biso  1.000000 H
   H30        1.0     0.119927      0.033478      0.495320     Biso  1.000000 H
   H31        1.0     0.095089      0.942757      0.441846     Biso  1.000000 H
   H32        1.0     0.132257      0.957325      0.538608     Biso  1.000000 H
   H33        1.0     0.056741      0.945649      0.549095     Biso  1.000000 H
   H34        1.0     0.997161      0.963025      0.393126     Biso  1.000000 H
   H35        1.0     0.743834      0.932647      0.206031     Biso  1.000000 H
   H36        1.0     0.609476      0.997150      0.313663     Biso  1.000000 H
   H37        1.0     0.874886      0.950477      0.243895     Biso  1.000000 H
   H38        1.0     0.627767      0.033057      0.193928     Biso  1.000000 H
   H39        1.0     0.465989      0.036929      0.196422     Biso  1.000000 H
   H40        1.0     0.475879      0.023798      0.306790     Biso  1.000000 H
   H41        1.0     0.542696      0.005225      0.145583     Biso  1.000000 H
   H42        1.0     0.381628      0.015147      0.345137     Biso  1.000000 H
   H43        1.0     0.356268      0.026318      0.235835     Biso  1.000000 H
   H44        1.0     0.330355      0.994549      0.283462     Biso  1.000000 H
   H45        1.0     0.461480      0.985257      0.104715     Biso  1.000000 H
   H46        1.0     0.392387      0.004393      0.095489     Biso  1.000000 H
   H47        1.0     0.436665      0.981126      0.280740     Biso  1.000000 H
   H48        1.0     0.324892      0.941730      0.021826     Biso  1.000000 H
   H49        1.0     0.322255      0.977799      0.015918     Biso  1.000000 H
   H50        1.0     0.389622      0.959595      0.986388     Biso  1.000000 H
   H51        1.0     0.446714      0.941660      0.213158     Biso  1.000000 H
   H52        1.0     0.306757      0.005229      0.576768     Biso  1.000000 H
   H53        1.0     0.582697      0.044861      0.275242     Biso  1.000000 H
   H54        1.0     0.803358      0.922442      0.144759     Biso  1.000000 H
   H55        1.0     0.564754      0.052221      0.168898     Biso  1.000000 H
   H56        1.0     0.533534      0.984915      0.328293     Biso  1.000000 H
   H57        1.0     0.861535      0.955918      0.040171     Biso  1.000000 H
   H58        1.0     0.829129      0.988412      0.019358     Biso  1.000000 H
   H59        1.0     0.861769      0.981913      0.124308     Biso  1.000000 H
   H60        1.0     0.745821      0.938069      0.013323     Biso  1.000000 H
   H61        1.0     0.722970      0.970447      0.998666     Biso  1.000000 H
   H62        1.0     0.760692      0.979026      0.146904     Biso  1.000000 H
   H63        1.0     0.623381      0.930397      0.969632     Biso  1.000000 H
   H64        1.0     0.574035      0.941132      0.052140     Biso  1.000000 H
   H65        1.0     0.610804      0.964477      0.984390     Biso  1.000000 H
   H66        1.0     0.639424      0.989051      0.142881     Biso  1.000000 H
   H67        1.0     0.685295      0.971132      0.221728     Biso  1.000000 H
   H68        1.0     0.671248      0.929062      0.124750     Biso  1.000000 H
   H69        1.0     0.612850      0.922588      0.270220     Biso  1.000000 H
   H70        1.0     0.643278      0.947689      0.340215     Biso  1.000000 H
   H71        1.0     0.562369      0.937987      0.343715     Biso  1.000000 H
   H72        1.0     0.547352      0.958270      0.198072     Biso  1.000000 H
   H73        1.0     0.314792      0.990099      0.470403     Biso  1.000000 H
   H74        1.0     0.193996      0.725142      0.064109     Biso  1.000000 H
   H75        1.0     0.224378      0.941660      0.485161     Biso  1.000000 H
   H76        1.0     0.952792      0.857734      0.778715     Biso  1.000000 H
   H77        1.0     0.961367      0.860790      0.965810     Biso  1.000000 H
   H78        1.0     0.034371      0.871003      0.969578     Biso  1.000000 H
   H79        1.0     0.064309      0.835714      0.863951     Biso  1.000000 H
   H80        1.0     0.096206      0.816476      0.107974     Biso  1.000000 H
   H81        1.0     0.089023      0.814833      0.995307     Biso  1.000000 H
   H82        1.0     0.121067      0.844525      0.046689     Biso  1.000000 H
   H83        1.0     0.962553      0.866875      0.129203     Biso  1.000000 H
   H84        1.0     0.037763      0.875378      0.121740     Biso  1.000000 H
   H85        1.0     0.987688      0.821905      0.067186     Biso  1.000000 H
   H86        1.0     0.940284      0.817139      0.206152     Biso  1.000000 H
   H87        1.0     0.975661      0.811288      0.302914     Biso  1.000000 H
   H88        1.0     0.929199      0.839309      0.289262     Biso  1.000000 H
   H89        1.0     0.977515      0.880656      0.304497     Biso  1.000000 H
   H90        1.0     0.061589      0.880006      0.280163     Biso  1.000000 H
   H91        1.0     0.025630      0.850250      0.733649     Biso  1.000000 H
   H92        1.0     0.049667      0.833194      0.230478     Biso  1.000000 H
   H93        1.0     0.023213      0.876605      0.805220     Biso  1.000000 H
   H94        1.0     0.933246      0.818610      0.837794     Biso  1.000000 H
   H95        1.0     0.450812      0.935415      0.096676     Biso  1.000000 H
   H96        1.0     0.238164      0.723096      0.963550     Biso  1.000000 H
   H97        1.0     0.180852      0.733094      0.811919     Biso  1.000000 H
   H98        1.0     0.180769      0.766898      0.837982     Biso  1.000000 H
   H99        1.0     0.118943      0.752158      0.976404     Biso  1.000000 H
   H100       1.0     0.074734      0.757236      0.652423     Biso  1.000000 H
   H101       1.0     0.134523      0.779582      0.687464     Biso  1.000000 H
   H102       1.0     0.143881      0.744210      0.673738     Biso  1.000000 H
   H103       1.0     0.100038      0.795727      0.829674     Biso  1.000000 H
   H104       1.0     0.058599      0.776228      0.908474     Biso  1.000000 H
   H105       1.0     0.061447      0.736365      0.806266     Biso  1.000000 H
   H106       1.0     0.929643      0.763191      0.868786     Biso  1.000000 H
   H107       1.0     0.914155      0.777927      0.767437     Biso  1.000000 H
   H108       1.0     0.962063      0.754926      0.749198     Biso  1.000000 H
   H109       1.0     0.968070      0.806128      0.926605     Biso  1.000000 H
   H110       1.0     0.005788      0.796800      0.741239     Biso  1.000000 H
   H111       1.0     0.302335      0.943285      0.451649     Biso  1.000000 H
   H112       1.0     0.007582      0.875530      0.536154     Biso  1.000000 H
   H113       1.0     0.975491      0.891745      0.443676     Biso  1.000000 H
   H114       1.0     0.199339      0.904067      0.822540     Biso  1.000000 H
   H115       1.0     0.276220      0.857179      0.760738     Biso  1.000000 H
   H116       1.0     0.360631      0.911692      0.883524     Biso  1.000000 H
   H117       1.0     0.369426      0.883054      0.815640     Biso  1.000000 H
   H118       1.0     0.394814      0.915465      0.785494     Biso  1.000000 H
   H119       1.0     0.255928      0.945151      0.843641     Biso  1.000000 H
   H120       1.0     0.234684      0.941406      0.733160     Biso  1.000000 H
   H121       1.0     0.292404      0.906563      0.707016     Biso  1.000000 H
   H122       1.0     0.259485      0.995252      0.757902     Biso  1.000000 H
   H123       1.0     0.310658      0.991951      0.845458     Biso  1.000000 H
   H124       1.0     0.335185      0.001407      0.739952     Biso  1.000000 H
   H125       1.0     0.355032      0.939823      0.630859     Biso  1.000000 H
   H126       1.0     0.371606      0.972541      0.618923     Biso  1.000000 H
   H127       1.0     0.369037      0.958854      0.782362     Biso  1.000000 H
   H128       1.0     0.275423      0.920040      0.539192     Biso  1.000000 H
   H129       1.0     0.255663      0.892350      0.889612     Biso  1.000000 H
   H130       1.0     0.051576      0.895663      0.468231     Biso  1.000000 H
   H131       1.0     0.186030      0.827285      0.817726     Biso  1.000000 H
   H132       1.0     0.235737      0.839779      0.909198     Biso  1.000000 H
   H133       1.0     0.129592      0.864581      0.395211     Biso  1.000000 H
   H134       1.0     0.107112      0.834069      0.364267     Biso  1.000000 H
   H135       1.0     0.000797      0.841314      0.416326     Biso  1.000000 H
   H136       1.0     0.028799      0.817009      0.558315     Biso  1.000000 H
   H137       1.0     0.062496      0.796314      0.481715     Biso  1.000000 H
   H138       1.0     0.098358      0.800089      0.584217     Biso  1.000000 H
   H139       1.0     0.101362      0.859966      0.606123     Biso  1.000000 H
   H140       1.0     0.152946      0.871965      0.528215     Biso  1.000000 H
   H141       1.0     0.161229      0.825440      0.477611     Biso  1.000000 H
   H142       1.0     0.237496      0.817211      0.551067     Biso  1.000000 H
   H143       1.0     0.262718      0.848993      0.549203     Biso  1.000000 H
   H144       1.0     0.279507      0.828162      0.644872     Biso  1.000000 H
   H145       1.0     0.151948      0.874894      0.730598     Biso  1.000000 H
   H146       1.0     0.216710      0.883759      0.654374     Biso  1.000000 H
   H147       1.0     0.159672      0.828742      0.670640     Biso  1.000000 H
   H148       1.0     0.160748      0.852934      0.873338     Biso  1.000000 H
   H149       1.0     0.340395      0.960766      0.172679     Biso  1.000000 H
   H150       1.0     0.393784      0.065085      0.975224     Biso  1.000000 H
   H151       1.0     0.427865      0.886829      0.076097     Biso  1.000000 H
   H152       1.0     0.109653      0.187649      0.474232     Biso  1.000000 H
   H153       1.0     0.080663      0.192201      0.358071     Biso  1.000000 H
   H154       1.0     0.189633      0.183105      0.314467     Biso  1.000000 H
   H155       1.0     0.215469      0.151177      0.318872     Biso  1.000000 H
   H156       1.0     0.122994      0.139736      0.420691     Biso  1.000000 H
   H157       1.0     0.329961      0.155277      0.367096     Biso  1.000000 H
   H158       1.0     0.045784      0.174598      0.434685     Biso  1.000000 H
   H159       1.0     0.305865      0.189373      0.371636     Biso  1.000000 H
   H160       1.0     0.272813      0.133369      0.518573     Biso  1.000000 H
   H161       1.0     0.216545      0.124135      0.448457     Biso  1.000000 H
   H162       1.0     0.223261      0.182757      0.484766     Biso  1.000000 H
   H163       1.0     0.143611      0.106069      0.643545     Biso  1.000000 H
   H164       1.0     0.183457      0.098222      0.541941     Biso  1.000000 H
   H165       1.0     0.222781      0.099421      0.635110     Biso  1.000000 H
   H166       1.0     0.331549      0.174074      0.467654     Biso  1.000000 H
   H167       1.0     0.159017      0.119734      0.242326     Biso  1.000000 H
   H168       1.0     0.086083      0.158533      0.237572     Biso  1.000000 H
   H169       1.0     0.041719      0.140583      0.316385     Biso  1.000000 H
   H170       1.0     0.991355      0.035888      0.064578     Biso  1.000000 H
   H171       1.0     0.973884      0.056036      0.165954     Biso  1.000000 H
   H172       1.0     0.920372      0.044503      0.092633     Biso  1.000000 H
   H173       1.0     0.059103      0.094746      0.985537     Biso  1.000000 H
   H174       1.0     0.068942      0.062776      0.990566     Biso  1.000000 H
   H175       1.0     0.963207      0.094786      0.085176     Biso  1.000000 H
   H176       1.0     0.174190      0.098701      0.086772     Biso  1.000000 H
   H177       1.0     0.176955      0.074996      0.169079     Biso  1.000000 H
   H178       1.0     0.159626      0.065666      0.056009     Biso  1.000000 H
   H179       1.0     0.024559      0.115541      0.183984     Biso  1.000000 H
   H180       1.0     0.074289      0.123189      0.104420     Biso  1.000000 H
   H181       1.0     0.068933      0.068088      0.170480     Biso  1.000000 H
   H182       1.0     0.122390      0.077520      0.292897     Biso  1.000000 H
   H183       1.0     0.119693      0.101267      0.384563     Biso  1.000000 H
   H184       1.0     0.051443      0.089852      0.317914     Biso  1.000000 H
   H185       1.0     0.218417      0.175787      0.632428     Biso  1.000000 H
   H186       1.0     0.257018      0.148341      0.673892     Biso  1.000000 H
   H187       1.0     0.140273      0.146239      0.565047     Biso  1.000000 H
   H188       1.0     0.077352      0.153113      0.678123     Biso  1.000000 H
   H189       1.0     0.441747      0.214507      0.968049     Biso  1.000000 H
   H190       1.0     0.380630      0.136051      0.997002     Biso  1.000000 H
   H191       1.0     0.455335      0.141752      0.972207     Biso  1.000000 H
   H192       1.0     0.370915      0.181162      0.900776     Biso  1.000000 H
   H193       1.0     0.441422      0.172621      0.793580     Biso  1.000000 H
   H194       1.0     0.495964      0.147098      0.798039     Biso  1.000000 H
   H195       1.0     0.430759      0.145062      0.725697     Biso  1.000000 H
   H196       1.0     0.451247      0.098883      0.890397     Biso  1.000000 H
   H197       1.0     0.432128      0.102772      0.777220     Biso  1.000000 H
   H198       1.0     0.356515      0.138553      0.836708     Biso  1.000000 H
   H199       1.0     0.274713      0.071713      0.806608     Biso  1.000000 H
   H200       1.0     0.311849      0.097804      0.745946     Biso  1.000000 H
   H201       1.0     0.343984      0.066729      0.741548     Biso  1.000000 H
   H202       1.0     0.325657      0.056048      0.938111     Biso  1.000000 H
   H203       1.0     0.234314      0.752724      0.013987     Biso  1.000000 H
   H204       1.0     0.481441      0.190511      0.926578     Biso  1.000000 H
   H205       1.0     0.861100      0.061599      0.974124     Biso  1.000000 H
   H206       1.0     0.475902      0.188512      0.042867     Biso  1.000000 H
   H207       1.0     0.347226      0.202149      0.057410     Biso  1.000000 H
   H208       1.0     0.079559      0.159682      0.788082     Biso  1.000000 H
   H209       1.0     0.103523      0.184981      0.708384     Biso  1.000000 H
   H210       1.0     0.166205      0.188812      0.820870     Biso  1.000000 H
   H211       1.0     0.245636      0.181416      0.781973     Biso  1.000000 H
   H212       1.0     0.170418      0.133613      0.762294     Biso  1.000000 H
   H213       1.0     0.158733      0.126978      0.900179     Biso  1.000000 H
   H214       1.0     0.183040      0.136367      0.011272     Biso  1.000000 H
   H215       1.0     0.131510      0.155921      0.950716     Biso  1.000000 H
   H216       1.0     0.202462      0.195536      0.006719     Biso  1.000000 H
   H217       1.0     0.270139      0.198892      0.941571     Biso  1.000000 H
   H218       1.0     0.262603      0.149738      0.890464     Biso  1.000000 H
   H219       1.0     0.246153      0.196702      0.160892     Biso  1.000000 H
   H220       1.0     0.211609      0.166214      0.151075     Biso  1.000000 H
   H221       1.0     0.282863      0.167581      0.198568     Biso  1.000000 H
   H222       1.0     0.379160      0.174759      0.100424     Biso  1.000000 H
   H223       1.0     0.282840      0.151772      0.042210     Biso  1.000000 H
   H224       1.0     0.966490      0.062405      0.908581     Biso  1.000000 H
   H225       1.0     0.964805      0.095374      0.904162     Biso  1.000000 H
   H226       1.0     0.866297      0.100410      0.072121     Biso  1.000000 H
   H227       1.0     0.238517      0.961514      0.173591     Biso  1.000000 H
   H228       1.0     0.200671      0.981885      0.251606     Biso  1.000000 H
   H229       1.0     0.134028      0.938862      0.141876     Biso  1.000000 H
   H230       1.0     0.216559      0.027805      0.051657     Biso  1.000000 H
   H231       1.0     0.211536      0.029739      0.165035     Biso  1.000000 H
   H232       1.0     0.270762      0.010753      0.125743     Biso  1.000000 H
   H233       1.0     0.186666      0.958682      0.033600     Biso  1.000000 H
   H234       1.0     0.209283      0.988136      0.980883     Biso  1.000000 H
   H235       1.0     0.127472      0.999863      0.125971     Biso  1.000000 H
   H236       1.0     0.090277      0.019683      0.015838     Biso  1.000000 H
   H237       1.0     0.134688      0.017625      0.924526     Biso  1.000000 H
   H238       1.0     0.052730      0.009797      0.921891     Biso  1.000000 H
   H239       1.0     0.151573      0.943926      0.903190     Biso  1.000000 H
   H240       1.0     0.160707      0.970545      0.840389     Biso  1.000000 H
   H241       1.0     0.080850      0.968620      0.008281     Biso  1.000000 H
   H242       1.0     0.070691      0.968013      0.289557     Biso  1.000000 H
   H243       1.0     0.046091      0.942467      0.694357     Biso  1.000000 H
   H244       1.0     0.043358      0.940171      0.219488     Biso  1.000000 H
   H245       1.0     0.252819      0.920915      0.203235     Biso  1.000000 H
   H246       1.0     0.465705      0.889510      0.171687     Biso  1.000000 H
   H247       1.0     0.353443      0.928974      0.305442     Biso  1.000000 H
   H248       1.0     0.411841      0.908183      0.316841     Biso  1.000000 H
   H249       1.0     0.341585      0.910156      0.132917     Biso  1.000000 H
   H250       1.0     0.347029      0.886667      0.454988     Biso  1.000000 H
   H251       1.0     0.322585      0.857179      0.399274     Biso  1.000000 H
   H252       1.0     0.392218      0.867690      0.378240     Biso  1.000000 H
   H253       1.0     0.263826      0.917384      0.361893     Biso  1.000000 H
   H254       1.0     0.231219      0.885638      0.372071     Biso  1.000000 H
   H255       1.0     0.319856      0.873348      0.256159     Biso  1.000000 H
   H256       1.0     0.170156      0.895182      0.121961     Biso  1.000000 H
   H257       1.0     0.238942      0.876953      0.149003     Biso  1.000000 H
   H258       1.0     0.172519      0.870694      0.220829     Biso  1.000000 H
   H259       1.0     0.178128      0.937425      0.333510     Biso  1.000000 H
   H260       1.0     0.126909      0.912460      0.288920     Biso  1.000000 H
   H261       1.0     0.068425      0.974541      0.181993     Biso  1.000000 H
   H262       1.0     0.398215      0.868577      0.165927     Biso  1.000000 H
   H263       1.0     0.121616      0.946926      0.700666     Biso  1.000000 H
   H264       1.0     0.998764      0.956596      0.939318     Biso  1.000000 H
   H265       1.0     0.819359      0.981488      0.825939     Biso  1.000000 H
   H266       1.0     0.673917      0.005263      0.887017     Biso  1.000000 H
   H267       1.0     0.752661      0.007709      0.930239     Biso  1.000000 H
   H268       1.0     0.701800      0.033039      0.920550     Biso  1.000000 H
   H269       1.0     0.812308      0.042839      0.726783     Biso  1.000000 H
   H270       1.0     0.835722      0.028984      0.823935     Biso  1.000000 H
   H271       1.0     0.703617      0.030261      0.753248     Biso  1.000000 H
   H272       1.0     0.787113      0.097015      0.720232     Biso  1.000000 H
   H273       1.0     0.725200      0.076767      0.732187     Biso  1.000000 H
   H274       1.0     0.735455      0.104367      0.810397     Biso  1.000000 H
   H275       1.0     0.865701      0.101981      0.827361     Biso  1.000000 H
   H276       1.0     0.887476      0.066503      0.811530     Biso  1.000000 H
   H277       1.0     0.769711      0.066839      0.898020     Biso  1.000000 H
   H278       1.0     0.858458      0.118899      0.977121     Biso  1.000000 H
   H279       1.0     0.796701      0.097912      0.005136     Biso  1.000000 H
   H280       1.0     0.772449      0.005621      0.673470     Biso  1.000000 H
   H281       1.0     0.093876      0.917244      0.742956     Biso  1.000000 H
   H282       1.0     0.706227      0.988782      0.693861     Biso  1.000000 H
   H283       1.0     0.717595      0.961498      0.861162     Biso  1.000000 H
   H284       1.0     0.046279      0.927434      0.916091     Biso  1.000000 H
   H285       1.0     0.049685      0.974685      0.799206     Biso  1.000000 H
   H286       1.0     0.898670      0.897732      0.879387     Biso  1.000000 H
   H287       1.0     0.956637      0.901599      0.952996     Biso  1.000000 H
   H288       1.0     0.898341      0.926466      0.956523     Biso  1.000000 H
   H289       1.0     0.950914      0.967393      0.755481     Biso  1.000000 H
   H290       1.0     0.907910      0.963724      0.847456     Biso  1.000000 H
   H291       1.0     0.985477      0.919456      0.782530     Biso  1.000000 H
   H292       1.0     0.930009      0.907390      0.655406     Biso  1.000000 H
   H293       1.0     0.874309      0.923057      0.587999     Biso  1.000000 H
   H294       1.0     0.940544      0.939278      0.617669     Biso  1.000000 H
   H295       1.0     0.803193      0.957163      0.646341     Biso  1.000000 H
   H296       1.0     0.859136      0.979172      0.668314     Biso  1.000000 H
   H297       1.0     0.849723      0.926620      0.761482     Biso  1.000000 H
   H298       1.0     0.777375      0.935869      0.838673     Biso  1.000000 H
   H299       1.0     0.718694      0.940921      0.771822     Biso  1.000000 H
   H300       1.0     0.391169      0.045419      0.873560     Biso  1.000000 H
   H301       1.0     0.667448      0.752923      0.464603     Biso  1.000000 H
   H302       1.0     0.928013      0.117402      0.482191     Biso  1.000000 H
   H303       1.0     0.885288      0.727314      0.122699     Biso  1.000000 H
   H304       1.0     0.796870      0.694984      0.995547     Biso  1.000000 H
   H305       1.0     0.815531      0.663646      0.039836     Biso  1.000000 H
   H306       1.0     0.824935      0.692285      0.107666     Biso  1.000000 H
   H307       1.0     0.862107      0.672946      0.879943     Biso  1.000000 H
   H308       1.0     0.893689      0.649893      0.934718     Biso  1.000000 H
   H309       1.0     0.873778      0.724758      0.935784     Biso  1.000000 H
   H310       1.0     0.920748      0.680117      0.058590     Biso  1.000000 H
   H311       1.0     0.059034      0.675209      0.879822     Biso  1.000000 H
   H312       1.0     0.019747      0.686150      0.981956     Biso  1.000000 H
   H313       1.0     0.924213      0.658055      0.739094     Biso  1.000000 H
   H314       1.0     0.970721      0.636184      0.784146     Biso  1.000000 H
   H315       1.0     0.956102      0.695554      0.846310     Biso  1.000000 H
   H316       1.0     0.038230      0.694223      0.605821     Biso  1.000000 H
   H317       1.0     0.024852      0.652631      0.952627     Biso  1.000000 H
   H318       1.0     0.948053      0.718997      0.962658     Biso  1.000000 H
   H319       1.0     0.975821      0.755367      0.162186     Biso  1.000000 H
   H320       1.0     0.007802      0.744089      0.054661     Biso  1.000000 H
   H321       1.0     0.747400      0.746597      0.322755     Biso  1.000000 H
   H322       1.0     0.798257      0.800009      0.267182     Biso  1.000000 H
   H323       1.0     0.699455      0.715414      0.222097     Biso  1.000000 H
   H324       1.0     0.656817      0.738551      0.152805     Biso  1.000000 H
   H325       1.0     0.714358      0.712364      0.123202     Biso  1.000000 H
   H326       1.0     0.777009      0.790165      0.121150     Biso  1.000000 H
   H327       1.0     0.716927      0.776260      0.070023     Biso  1.000000 H
   H328       1.0     0.795354      0.738487      0.181617     Biso  1.000000 H
   H329       1.0     0.789471      0.796612      0.934879     Biso  1.000000 H
   H330       1.0     0.812862      0.768920      0.880493     Biso  1.000000 H
   H331       1.0     0.736801      0.770133      0.915762     Biso  1.000000 H
   H332       1.0     0.874304      0.773193      0.107719     Biso  1.000000 H
   H333       1.0     0.898945      0.777016      0.006250     Biso  1.000000 H
   H334       1.0     0.785653      0.738483      0.014215     Biso  1.000000 H
   H335       1.0     0.985756      0.721461      0.132126     Biso  1.000000 H
   H336       1.0     0.983412      0.672399      0.587878     Biso  1.000000 H
   H337       1.0     0.970766      0.701036      0.656358     Biso  1.000000 H
   H338       1.0     0.032347      0.631936      0.642264     Biso  1.000000 H
   H339       1.0     0.065975      0.631894      0.744364     Biso  1.000000 H
   H340       1.0     0.418708      0.722248      0.541840     Biso  1.000000 H
   H341       1.0     0.385455      0.755094      0.529530     Biso  1.000000 H
   H342       1.0     0.433057      0.749696      0.626480     Biso  1.000000 H
   H343       1.0     0.266953      0.750589      0.699231     Biso  1.000000 H
   H344       1.0     0.308690      0.776011      0.644302     Biso  1.000000 H
   H345       1.0     0.342396      0.717860      0.666752     Biso  1.000000 H
   H346       1.0     0.286100      0.736707      0.837794     Biso  1.000000 H
   H347       1.0     0.351218      0.721387      0.814809     Biso  1.000000 H
   H348       1.0     0.349886      0.746287      0.899482     Biso  1.000000 H
   H349       1.0     0.285674      0.789046      0.849629     Biso  1.000000 H
   H350       1.0     0.316523      0.804212      0.764232     Biso  1.000000 H
   H351       1.0     0.396668      0.763409      0.759652     Biso  1.000000 H
   H352       1.0     0.390162      0.817861      0.003775     Biso  1.000000 H
   H353       1.0     0.316802      0.826506      0.962276     Biso  1.000000 H
   H354       1.0     0.330171      0.794106      0.990150     Biso  1.000000 H
   H355       1.0     0.315296      0.687834      0.566428     Biso  1.000000 H
   H356       1.0     0.698045      0.772002      0.278534     Biso  1.000000 H
   H357       1.0     0.307975      0.730350      0.489533     Biso  1.000000 H
   H358       1.0     0.256473      0.666040      0.466588     Biso  1.000000 H
   H359       1.0     0.043857      0.680742      0.756581     Biso  1.000000 H
   H360       1.0     0.145722      0.604998      0.647025     Biso  1.000000 H
   H361       1.0     0.109534      0.616354      0.541686     Biso  1.000000 H
   H362       1.0     0.187023      0.619270      0.556632     Biso  1.000000 H
   H363       1.0     0.162579      0.641358      0.763568     Biso  1.000000 H
   H364       1.0     0.142549      0.676174      0.753919     Biso  1.000000 H
   H365       1.0     0.119048      0.663690      0.591519     Biso  1.000000 H
   H366       1.0     0.288911      0.639032      0.773384     Biso  1.000000 H
   H367       1.0     0.324316      0.665626      0.734736     Biso  1.000000 H
   H368       1.0     0.269892      0.672303      0.809096     Biso  1.000000 H
   H369       1.0     0.246959      0.706079      0.699185     Biso  1.000000 H
   H370       1.0     0.188539      0.701225      0.635934     Biso  1.000000 H
   H371       1.0     0.242161      0.650071      0.624106     Biso  1.000000 H
   H372       1.0     0.193667      0.687159      0.484705     Biso  1.000000 H
   H373       1.0     0.253328      0.699709      0.411619     Biso  1.000000 H
   H374       1.0     0.250961      0.740589      0.555345     Biso  1.000000 H
   H375       1.0     0.894179      0.784206      0.339840     Biso  1.000000 H
   H376       1.0     0.880471      0.763173      0.259766     Biso  1.000000 H
   H377       1.0     0.854924      0.754076      0.368109     Biso  1.000000 H
   H378       1.0     0.290825      0.768777      0.311095     Biso  1.000000 H
   H379       1.0     0.302055      0.799913      0.290717     Biso  1.000000 H
   H380       1.0     0.387790      0.819593      0.233649     Biso  1.000000 H
   H381       1.0     0.404941      0.804134      0.133139     Biso  1.000000 H
   H382       1.0     0.401576      0.774502      0.310659     Biso  1.000000 H
   H383       1.0     0.545214      0.813446      0.341791     Biso  1.000000 H
   H384       1.0     0.476730      0.830165      0.348798     Biso  1.000000 H
   H385       1.0     0.480306      0.795765      0.375055     Biso  1.000000 H
   H386       1.0     0.518531      0.845586      0.207325     Biso  1.000000 H
   H387       1.0     0.478681      0.832233      0.119514     Biso  1.000000 H
   H388       1.0     0.506302      0.787635      0.228125     Biso  1.000000 H
   H389       1.0     0.593214      0.789248      0.016609     Biso  1.000000 H
   H390       1.0     0.517986      0.786524      0.053119     Biso  1.000000 H
   H391       1.0     0.533979      0.812403      0.992134     Biso  1.000000 H
   H392       1.0     0.595334      0.859673      0.111588     Biso  1.000000 H
   H393       1.0     0.283824      0.778529      0.201632     Biso  1.000000 H
   H394       1.0     0.625024      0.840360      0.035115     Biso  1.000000 H
   H395       1.0     0.405257      0.713887      0.177735     Biso  1.000000 H
   H396       1.0     0.363433      0.755315      0.122860     Biso  1.000000 H
   H397       1.0     0.646941      0.721863      0.491277     Biso  1.000000 H
   H398       1.0     0.332767      0.101279      0.911572     Biso  1.000000 H
   H399       1.0     0.598538      0.749932      0.516025     Biso  1.000000 H
   H400       1.0     0.508500      0.742568      0.408990     Biso  1.000000 H
   H401       1.0     0.525728      0.709317      0.424406     Biso  1.000000 H
   H402       1.0     0.593287      0.756972      0.346800     Biso  1.000000 H
   H403       1.0     0.493675      0.694961      0.175857     Biso  1.000000 H
   H404       1.0     0.571086      0.702059      0.218912     Biso  1.000000 H
   H405       1.0     0.519666      0.682810      0.286701     Biso  1.000000 H
   H406       1.0     0.417449      0.736581      0.357206     Biso  1.000000 H
   H407       1.0     0.422801      0.702816      0.338297     Biso  1.000000 H
   H408       1.0     0.509425      0.742416      0.254013     Biso  1.000000 H
   H409       1.0     0.295257      0.713284      0.197462     Biso  1.000000 H
   H410       1.0     0.329659      0.693957      0.270280     Biso  1.000000 H
   H411       1.0     0.309207      0.728531      0.306481     Biso  1.000000 H
   H412       1.0     0.440163      0.755931      0.155809     Biso  1.000000 H
   H413       1.0     0.437283      0.842195      0.868363     Biso  1.000000 H
   H414       1.0     0.593498      0.804957      0.171170     Biso  1.000000 H
   H415       1.0     0.660145      0.874277      0.255857     Biso  1.000000 H
   H416       1.0     0.815980      0.834333      0.714559     Biso  1.000000 H
   H417       1.0     0.842544      0.866321      0.707781     Biso  1.000000 H
   H418       1.0     0.714271      0.851981      0.668863     Biso  1.000000 H
   H419       1.0     0.922167      0.828688      0.525171     Biso  1.000000 H
   H420       1.0     0.929556      0.852365      0.610776     Biso  1.000000 H
   H421       1.0     0.905053      0.820147      0.632515     Biso  1.000000 H
   H422       1.0     0.744553      0.829421      0.534632     Biso  1.000000 H
   H423       1.0     0.786793      0.805057      0.580643     Biso  1.000000 H
   H424       1.0     0.825022      0.864583      0.545059     Biso  1.000000 H
   H425       1.0     0.834303      0.836993      0.317062     Biso  1.000000 H
   H426       1.0     0.778446      0.852089      0.368303     Biso  1.000000 H
   H427       1.0     0.856288      0.856969      0.406724     Biso  1.000000 H
   H428       1.0     0.723483      0.804370      0.395888     Biso  1.000000 H
   H429       1.0     0.776610      0.778375      0.436790     Biso  1.000000 H
   H430       1.0     0.857158      0.807901      0.439935     Biso  1.000000 H
   H431       1.0     0.772014      0.907694      0.640065     Biso  1.000000 H
   H432       1.0     0.697940      0.849437      0.304805     Biso  1.000000 H
   H433       1.0     0.694126      0.900629      0.645013     Biso  1.000000 H
   H434       1.0     0.776281      0.840894      0.846028     Biso  1.000000 H
   H435       1.0     0.622520      0.845896      0.289490     Biso  1.000000 H
   H436       1.0     0.767989      0.856827      0.162762     Biso  1.000000 H
   H437       1.0     0.712467      0.875274      0.122196     Biso  1.000000 H
   H438       1.0     0.687794      0.817439      0.180645     Biso  1.000000 H
   H439       1.0     0.837050      0.829157      0.968452     Biso  1.000000 H
   H440       1.0     0.847498      0.858743      0.011064     Biso  1.000000 H
   H441       1.0     0.838135      0.832087      0.082045     Biso  1.000000 H
   H442       1.0     0.758878      0.881269      0.952238     Biso  1.000000 H
   H443       1.0     0.679942      0.871501      0.958595     Biso  1.000000 H
   H444       1.0     0.728936      0.825466      0.016757     Biso  1.000000 H
   H445       1.0     0.631970      0.841174      0.830063     Biso  1.000000 H
   H446       1.0     0.692281      0.823134      0.778212     Biso  1.000000 H
   H447       1.0     0.678303      0.816710      0.889914     Biso  1.000000 H
   H448       1.0     0.760284      0.890510      0.814930     Biso  1.000000 H
   H449       1.0     0.686641      0.883721      0.791569     Biso  1.000000 H
   H450       1.0     0.737937      0.885282      0.564665     Biso  1.000000 H
   H451       1.0     0.369426      0.839031      0.801720     Biso  1.000000 H
   H452       1.0     0.416648      0.787176      0.886937     Biso  1.000000 H
   H453       1.0     0.537174      0.808768      0.707961     Biso  1.000000 H
   H454       1.0     0.467683      0.335497      0.888123     Biso  1.000000 H
   H455       1.0     0.542709      0.328802      0.861289     Biso  1.000000 H
   H456       1.0     0.492320      0.333682      0.781692     Biso  1.000000 H
   H457       1.0     0.420947      0.301093      0.727534     Biso  1.000000 H
   H458       1.0     0.386893      0.314312      0.816411     Biso  1.000000 H
   H459       1.0     0.502900      0.280252      0.824484     Biso  1.000000 H
   H460       1.0     0.359400      0.230286      0.763568     Biso  1.000000 H
   H461       1.0     0.415146      0.250312      0.692868     Biso  1.000000 H
   H462       1.0     0.430919      0.241131      0.803048     Biso  1.000000 H
   H463       1.0     0.309733      0.284676      0.682355     Biso  1.000000 H
   H464       1.0     0.286571      0.297572      0.785152     Biso  1.000000 H
   H465       1.0     0.357816      0.266047      0.868001     Biso  1.000000 H
   H466       1.0     0.261715      0.248747      0.909439     Biso  1.000000 H
   H467       1.0     0.225605      0.277432      0.886481     Biso  1.000000 H
   H468       1.0     0.180247      0.248681      0.869128     Biso  1.000000 H
   H469       1.0     0.548272      0.299870      0.997881     Biso  1.000000 H
   H470       1.0     0.214672      0.271860      0.631985     Biso  1.000000 H
   H471       1.0     0.424257      0.270863      0.959453     Biso  1.000000 H
   H472       1.0     0.480965      0.301065      0.138644     Biso  1.000000 H
   H473       1.0     0.660997      0.147705      0.102127     Biso  1.000000 H
   H474       1.0     0.736678      0.198730      0.108108     Biso  1.000000 H
   H475       1.0     0.690431      0.216825      0.182837     Biso  1.000000 H
   H476       1.0     0.683806      0.182231      0.170312     Biso  1.000000 H
   H477       1.0     0.618276      0.220442      0.929119     Biso  1.000000 H
   H478       1.0     0.692290      0.228448      0.968264     Biso  1.000000 H
   H479       1.0     0.600173      0.203830      0.093645     Biso  1.000000 H
   H480       1.0     0.667466      0.282064      0.963885     Biso  1.000000 H
   H481       1.0     0.639886      0.291415      0.070298     Biso  1.000000 H
   H482       1.0     0.700124      0.268078      0.060776     Biso  1.000000 H
   H483       1.0     0.521333      0.238843      0.992410     Biso  1.000000 H
   H484       1.0     0.564787      0.258030      0.915662     Biso  1.000000 H
   H485       1.0     0.605576      0.251177      0.107370     Biso  1.000000 H
   H486       1.0     0.465413      0.266577      0.137302     Biso  1.000000 H
   H487       1.0     0.538896      0.277184      0.164150     Biso  1.000000 H
   H488       1.0     0.431702      0.303221      0.981285     Biso  1.000000 H
   H489       1.0     0.683065      0.174899      0.976639     Biso  1.000000 H
   H490       1.0     0.175000      0.284262      0.725482     Biso  1.000000 H
   H491       1.0     0.220926      0.218012      0.626346     Biso  1.000000 H
   H492       1.0     0.785058      0.203534      0.541136     Biso  1.000000 H
   H493       1.0     0.877070      0.158029      0.507255     Biso  1.000000 H
   H494       1.0     0.829633      0.162377      0.599901     Biso  1.000000 H
   H495       1.0     0.888850      0.205271      0.639052     Biso  1.000000 H
   H496       1.0     0.902521      0.175073      0.758740     Biso  1.000000 H
   H497       1.0     0.850185      0.148750      0.758659     Biso  1.000000 H
   H498       1.0     0.926237      0.146528      0.789892     Biso  1.000000 H
   H499       1.0     0.860464      0.117246      0.608638     Biso  1.000000 H
   H500       1.0     0.919058      0.106863      0.685090     Biso  1.000000 H
   H501       1.0     0.963464      0.154468      0.633199     Biso  1.000000 H
   H502       1.0     0.028689      0.101165      0.608906     Biso  1.000000 H
   H503       1.0     0.037150      0.099293      0.492121     Biso  1.000000 H
   H504       1.0     0.028341      0.131972      0.547909     Biso  1.000000 H
   H505       1.0     0.873256      0.077341      0.523542     Biso  1.000000 H
   H506       1.0     0.940050      0.065264      0.576493     Biso  1.000000 H
   H507       1.0     0.833831      0.202994      0.450797     Biso  1.000000 H
   H508       1.0     0.267044      0.238340      0.739825     Biso  1.000000 H
   H509       1.0     0.827371      0.232227      0.533399     Biso  1.000000 H
   H510       1.0     0.946245      0.194869      0.457911     Biso  1.000000 H
   H511       1.0     0.148656      0.205864      0.606458     Biso  1.000000 H
   H512       1.0     0.177088      0.231775      0.541579     Biso  1.000000 H
   H513       1.0     0.086390      0.263138      0.608845     Biso  1.000000 H
   H514       1.0     0.083593      0.270102      0.717791     Biso  1.000000 H
   H515       1.0     0.151472      0.229665      0.744444     Biso  1.000000 H
   H516       1.0     0.980473      0.211450      0.769576     Biso  1.000000 H
   H517       1.0     0.060133      0.215886      0.810833     Biso  1.000000 H
   H518       1.0     0.003398      0.240622      0.819764     Biso  1.000000 H
   H519       1.0     0.977163      0.264001      0.623805     Biso  1.000000 H
   H520       1.0     0.935517      0.238174      0.663365     Biso  1.000000 H
   H521       1.0     0.052318      0.216072      0.645094     Biso  1.000000 H
   H522       1.0     0.014125      0.227554      0.400562     Biso  1.000000 H
   H523       1.0     0.035098      0.255967      0.459011     Biso  1.000000 H
   H524       1.0     0.063919      0.225306      0.492658     Biso  1.000000 H
   H525       1.0     0.985903      0.192011      0.548653     Biso  1.000000 H
   H526       1.0     0.932084      0.243563      0.494890     Biso  1.000000 H
   H527       1.0     0.122221      0.717532      0.941443     Biso  1.000000 H
   H528       1.0     0.603414      0.179182      0.949469     Biso  1.000000 H
   H529       1.0     0.626132      0.106215      0.010138     Biso  1.000000 H
   H530       1.0     0.602078      0.923149      0.722143     Biso  1.000000 H
   H531       1.0     0.468480      0.948454      0.668267     Biso  1.000000 H
   H532       1.0     0.489980      0.946080      0.559797     Biso  1.000000 H
   H533       1.0     0.482279      0.906684      0.647031     Biso  1.000000 H
   H534       1.0     0.636970      0.957543      0.604004     Biso  1.000000 H
   H535       1.0     0.597334      0.964581      0.507235     Biso  1.000000 H
   H536       1.0     0.633618      0.990772      0.574884     Biso  1.000000 H
   H537       1.0     0.605159      0.986765      0.734635     Biso  1.000000 H
   H538       1.0     0.575788      0.961264      0.778601     Biso  1.000000 H
   H539       1.0     0.525550      0.986791      0.613324     Biso  1.000000 H
   H540       1.0     0.538937      0.992395      0.922736     Biso  1.000000 H
   H541       1.0     0.463828      0.995274      0.911310     Biso  1.000000 H
   H542       1.0     0.493382      0.964409      0.884858     Biso  1.000000 H
   H543       1.0     0.577762      0.023574      0.816324     Biso  1.000000 H
   H544       1.0     0.505693      0.036875      0.813602     Biso  1.000000 H
   H545       1.0     0.566581      0.890925      0.758371     Biso  1.000000 H
   H546       1.0     0.474917      0.991392      0.738148     Biso  1.000000 H
   H547       1.0     0.529382      0.922330      0.787304     Biso  1.000000 H
   H548       1.0     0.612741      0.904720      0.576634     Biso  1.000000 H
   H549       1.0     0.521512      0.817531      0.835005     Biso  1.000000 H
   H550       1.0     0.503331      0.787813      0.788337     Biso  1.000000 H
   H551       1.0     0.502214      0.855254      0.712541     Biso  1.000000 H
   H552       1.0     0.422105      0.860792      0.696181     Biso  1.000000 H
   H553       1.0     0.422174      0.807953      0.708599     Biso  1.000000 H
   H554       1.0     0.401745      0.805579      0.573475     Biso  1.000000 H
   H555       1.0     0.370667      0.839001      0.566898     Biso  1.000000 H
   H556       1.0     0.408283      0.822877      0.474514     Biso  1.000000 H
   H557       1.0     0.461828      0.877228      0.536812     Biso  1.000000 H
   H558       1.0     0.498844      0.857396      0.460842     Biso  1.000000 H
   H559       1.0     0.508752      0.823304      0.587134     Biso  1.000000 H
   H560       1.0     0.608483      0.837744      0.510071     Biso  1.000000 H
   H561       1.0     0.596423      0.860008      0.424258     Biso  1.000000 H
   H562       1.0     0.651868      0.864529      0.514637     Biso  1.000000 H
   H563       1.0     0.553798      0.913779      0.502923     Biso  1.000000 H
   H564       1.0     0.579447      0.862492      0.622692     Biso  1.000000 H
   H565       1.0     0.599898      0.128369      0.922025     Biso  1.000000 H
   H566       1.0     0.583846      0.078000      0.648031     Biso  1.000000 H
   H567       1.0     0.600883      0.066873      0.759920     Biso  1.000000 H
   H568       1.0     0.354199      0.118811      0.235748     Biso  1.000000 H
   H569       1.0     0.383775      0.065392      0.304068     Biso  1.000000 H
   H570       1.0     0.376244      0.098080      0.089743     Biso  1.000000 H
   H571       1.0     0.450615      0.087470      0.075132     Biso  1.000000 H
   H572       1.0     0.397185      0.068558      0.138154     Biso  1.000000 H
   H573       1.0     0.485805      0.140165      0.246557     Biso  1.000000 H
   H574       1.0     0.454360      0.137927      0.145738     Biso  1.000000 H
   H575       1.0     0.475453      0.089025      0.245920     Biso  1.000000 H
   H576       1.0     0.575981      0.096985      0.241568     Biso  1.000000 H
   H577       1.0     0.629708      0.108431      0.171486     Biso  1.000000 H
   H578       1.0     0.608913      0.128737      0.259914     Biso  1.000000 H
   H579       1.0     0.562278      0.163592      0.163366     Biso  1.000000 H
   H580       1.0     0.526076      0.156750      0.057028     Biso  1.000000 H
   H581       1.0     0.540507      0.109892      0.088348     Biso  1.000000 H
   H582       1.0     0.677960      0.125549      0.942878     Biso  1.000000 H
   H583       1.0     0.402226      0.123067      0.324639     Biso  1.000000 H
   H584       1.0     0.529148      0.081999      0.735875     Biso  1.000000 H
   H585       1.0     0.297486      0.081026      0.199600     Biso  1.000000 H
   H586       1.0     0.278156      0.059529      0.296370     Biso  1.000000 H
   H587       1.0     0.448427      0.051903      0.692265     Biso  1.000000 H
   H588       1.0     0.458966      0.023257      0.642284     Biso  1.000000 H
   H589       1.0     0.572991      0.029416      0.641781     Biso  1.000000 H
   H590       1.0     0.557699      0.037501      0.483954     Biso  1.000000 H
   H591       1.0     0.488387      0.020655      0.476223     Biso  1.000000 H
   H592       1.0     0.501463      0.047859      0.411176     Biso  1.000000 H
   H593       1.0     0.378574      0.064045      0.590902     Biso  1.000000 H
   H594       1.0     0.393069      0.048610      0.488011     Biso  1.000000 H
   H595       1.0     0.497406      0.075028      0.565791     Biso  1.000000 H
   H596       1.0     0.375923      0.111833      0.598459     Biso  1.000000 H
   H597       1.0     0.450166      0.114892      0.566844     Biso  1.000000 H
   H598       1.0     0.395505      0.133185      0.505713     Biso  1.000000 H
   H599       1.0     0.323185      0.108799      0.414489     Biso  1.000000 H
   H600       1.0     0.311464      0.077972      0.446137     Biso  1.000000 H
   H601       1.0     0.440854      0.086217      0.425867     Biso  1.000000 H
   H602       1.0     0.261115      0.093002      0.303940     Biso  1.000000 H
   H603       1.0     0.917190      0.227305      0.914086     Biso  1.000000 H
   H604       1.0     0.989323      0.484586      0.430353     Biso  1.000000 H
   H605       1.0     0.865688      0.219855      0.032997     Biso  1.000000 H
   H606       1.0     0.282918      0.232237      0.390719     Biso  1.000000 H
   H607       1.0     0.325538      0.219383      0.481366     Biso  1.000000 H
   H608       1.0     0.345733      0.266914      0.279480     Biso  1.000000 H
   H609       1.0     0.409272      0.281387      0.331686     Biso  1.000000 H
   H610       1.0     0.405985      0.256413      0.461780     Biso  1.000000 H
   H611       1.0     0.368163      0.333191      0.309251     Biso  1.000000 H
   H612       1.0     0.300906      0.251457      0.489285     Biso  1.000000 H
   H613       1.0     0.322443      0.311680      0.242849     Biso  1.000000 H
   H614       1.0     0.392177      0.309878      0.484223     Biso  1.000000 H
   H615       1.0     0.337272      0.290671      0.522134     Biso  1.000000 H
   H616       1.0     0.280848      0.289598      0.388687     Biso  1.000000 H
   H617       1.0     0.380062      0.348420      0.596065     Biso  1.000000 H
   H618       1.0     0.309335      0.356356      0.638804     Biso  1.000000 H
   H619       1.0     0.337753      0.324941      0.653415     Biso  1.000000 H
   H620       1.0     0.288746      0.334635      0.320850     Biso  1.000000 H
   H621       1.0     0.421570      0.199907      0.471979     Biso  1.000000 H
   H622       1.0     0.448720      0.235894      0.310270     Biso  1.000000 H
   H623       1.0     0.384494      0.216036      0.316593     Biso  1.000000 H
   H624       1.0     0.662979      0.236449      0.744290     Biso  1.000000 H
   H625       1.0     0.717192      0.211004      0.746369     Biso  1.000000 H
   H626       1.0     0.719916      0.234621      0.667657     Biso  1.000000 H
   H627       1.0     0.609124      0.236889      0.555029     Biso  1.000000 H
   H628       1.0     0.569296      0.234767      0.657445     Biso  1.000000 H
   H629       1.0     0.616284      0.194669      0.701766     Biso  1.000000 H
   H630       1.0     0.475398      0.207231      0.641828     Biso  1.000000 H
   H631       1.0     0.472788      0.178061      0.586336     Biso  1.000000 H
   H632       1.0     0.527125      0.183548      0.673034     Biso  1.000000 H
   H633       1.0     0.535407      0.233188      0.437273     Biso  1.000000 H
   H634       1.0     0.485310      0.237598      0.528403     Biso  1.000000 H
   H635       1.0     0.575436      0.195209      0.503849     Biso  1.000000 H
   H636       1.0     0.506984      0.194114      0.308151     Biso  1.000000 H
   H637       1.0     0.512075      0.169282      0.393917     Biso  1.000000 H
   H638       1.0     0.442420      0.176730      0.341047     Biso  1.000000 H
   H639       1.0     0.228375      0.317585      0.589078     Biso  1.000000 H
   H640       1.0     0.221448      0.312405      0.481453     Biso  1.000000 H
   H641       1.0     0.320268      0.346895      0.463537     Biso  1.000000 H
   H642       1.0     0.109369      0.323918      0.508133     Biso  1.000000 H
   H643       1.0     0.079907      0.445188      0.374009     Biso  1.000000 H
   H644       1.0     0.114250      0.516278      0.294754     Biso  1.000000 H
   H645       1.0     0.172583      0.495940      0.275289     Biso  1.000000 H
   H646       1.0     0.097630      0.494789      0.444072     Biso  1.000000 H
   H647       1.0     0.215496      0.556499      0.473937     Biso  1.000000 H
   H648       1.0     0.135173      0.550398      0.446231     Biso  1.000000 H
   H649       1.0     0.172945      0.528598      0.504586     Biso  1.000000 H
   H650       1.0     0.214265      0.570124      0.311182     Biso  1.000000 H
   H651       1.0     0.155730      0.553993      0.252578     Biso  1.000000 H
   H652       1.0     0.242028      0.519107      0.369939     Biso  1.000000 H
   H653       1.0     0.317700      0.544753      0.296960     Biso  1.000000 H
   H654       1.0     0.343394      0.545252      0.184319     Biso  1.000000 H
   H655       1.0     0.318446      0.574482      0.238853     Biso  1.000000 H
   H656       1.0     0.207525      0.579207      0.131771     Biso  1.000000 H
   H657       1.0     0.175399      0.550660      0.119433     Biso  1.000000 H
   H658       1.0     0.111439      0.458349      0.277086     Biso  1.000000 H
   H659       1.0     0.600292      0.158838      0.589018     Biso  1.000000 H
   H660       1.0     0.044287      0.470405      0.316948     Biso  1.000000 H
   H661       1.0     0.203808      0.484442      0.482265     Biso  1.000000 H
   H662       1.0     0.126497      0.340163      0.605835     Biso  1.000000 H
   H663       1.0     0.090813      0.358458      0.528645     Biso  1.000000 H
   H664       1.0     0.259344      0.383777      0.528665     Biso  1.000000 H
   H665       1.0     0.197641      0.379315      0.604225     Biso  1.000000 H
   H666       1.0     0.198977      0.350165      0.431111     Biso  1.000000 H
   H667       1.0     0.173957      0.420562      0.350528     Biso  1.000000 H
   H668       1.0     0.245247      0.406751      0.380996     Biso  1.000000 H
   H669       1.0     0.186533      0.386481      0.346183     Biso  1.000000 H
   H670       1.0     0.240334      0.432652      0.532292     Biso  1.000000 H
   H671       1.0     0.186991      0.424880      0.613707     Biso  1.000000 H
   H672       1.0     0.125421      0.399720      0.492249     Biso  1.000000 H
   H673       1.0     0.192705      0.474588      0.640909     Biso  1.000000 H
   H674       1.0     0.137430      0.493252      0.579477     Biso  1.000000 H
   H675       1.0     0.113819      0.467096      0.652550     Biso  1.000000 H
   H676       1.0     0.205625      0.457570      0.409694     Biso  1.000000 H
   H677       1.0     0.105752      0.445605      0.516401     Biso  1.000000 H
   H678       1.0     0.720626      0.182611      0.620385     Biso  1.000000 H
   H679       1.0     0.682113      0.190041      0.521168     Biso  1.000000 H
   H680       1.0     0.704482      0.139254      0.707533     Biso  1.000000 H
   H681       1.0     0.073465      0.303373      0.116536     Biso  1.000000 H
   H682       1.0     0.020704      0.284420      0.159316     Biso  1.000000 H
   H683       1.0     0.059565      0.307809      0.308453     Biso  1.000000 H
   H684       1.0     0.160363      0.300211      0.285923     Biso  1.000000 H
   H685       1.0     0.197810      0.271001      0.259089     Biso  1.000000 H
   H686       1.0     0.188150      0.295395      0.174811     Biso  1.000000 H
   H687       1.0     0.151751      0.241945      0.140749     Biso  1.000000 H
   H688       1.0     0.125275      0.265338      0.074877     Biso  1.000000 H
   H689       1.0     0.092429      0.261437      0.266606     Biso  1.000000 H
   H690       1.0     0.087947      0.235446      0.955464     Biso  1.000000 H
   H691       1.0     0.106677      0.205508      0.011466     Biso  1.000000 H
   H692       1.0     0.030928      0.211144      0.973548     Biso  1.000000 H
   H693       1.0     0.046137      0.225940      0.233200     Biso  1.000000 H
   H694       1.0     0.064231      0.197685      0.160160     Biso  1.000000 H
   H695       1.0     0.023662      0.249740      0.082488     Biso  1.000000 H
   H696       1.0     0.105120      0.350964      0.285876     Biso  1.000000 H
   H697       1.0     0.936772      0.248751      0.159155     Biso  1.000000 H
   H698       1.0     0.076313      0.355986      0.183327     Biso  1.000000 H
   H699       1.0     0.929739      0.292765      0.247784     Biso  1.000000 H
   H700       1.0     0.722741      0.256743      0.386910     Biso  1.000000 H
   H701       1.0     0.797021      0.281874      0.141399     Biso  1.000000 H
   H702       1.0     0.846344      0.270340      0.234957     Biso  1.000000 H
   H703       1.0     0.747286      0.298325      0.310947     Biso  1.000000 H
   H704       1.0     0.763974      0.339260      0.247670     Biso  1.000000 H
   H705       1.0     0.788121      0.351466      0.148178     Biso  1.000000 H
   H706       1.0     0.738156      0.324450      0.147903     Biso  1.000000 H
   H707       1.0     0.846477      0.318916      0.348080     Biso  1.000000 H
   H708       1.0     0.879148      0.344739      0.288525     Biso  1.000000 H
   H709       1.0     0.862455      0.310925      0.149841     Biso  1.000000 H
   H710       1.0     0.950402      0.318373      0.435436     Biso  1.000000 H
   H711       1.0     0.917968      0.287138      0.402077     Biso  1.000000 H
   H712       1.0     0.995797      0.292344      0.387688     Biso  1.000000 H
   H713       1.0     0.981420      0.348122      0.273022     Biso  1.000000 H
   H714       1.0     0.970235      0.330171      0.175515     Biso  1.000000 H
   H715       1.0     0.133983      0.334943      0.184896     Biso  1.000000 H
   H716       1.0     0.249953      0.524345      0.202806     Biso  1.000000 H
   H717       1.0     0.885356      0.226345      0.199929     Biso  1.000000 H
   H718       1.0     0.957887      0.186096      0.294251     Biso  1.000000 H
   H719       1.0     0.739983      0.094085      0.268925     Biso  1.000000 H
   H720       1.0     0.750472      0.048636      0.565436     Biso  1.000000 H
   H721       1.0     0.685029      0.067686      0.580549     Biso  1.000000 H
   H722       1.0     0.686196      0.043704      0.498686     Biso  1.000000 H
   H723       1.0     0.630345      0.076945      0.415233     Biso  1.000000 H
   H724       1.0     0.670419      0.102934      0.360653     Biso  1.000000 H
   H725       1.0     0.745244      0.095192      0.491162     Biso  1.000000 H
   H726       1.0     0.543474      0.099594      0.434175     Biso  1.000000 H
   H727       1.0     0.545649      0.128063      0.521329     Biso  1.000000 H
   H728       1.0     0.569933      0.130004      0.405182     Biso  1.000000 H
   H729       1.0     0.666473      0.150057      0.437903     Biso  1.000000 H
   H730       1.0     0.719060      0.135407      0.511721     Biso  1.000000 H
   H731       1.0     0.635143      0.103315      0.556203     Biso  1.000000 H
   H732       1.0     0.632638      0.151978      0.736056     Biso  1.000000 H
   H733       1.0     0.636828      0.121385      0.682073     Biso  1.000000 H
   H734       1.0     0.721853      0.051745      0.352626     Biso  1.000000 H
   H735       1.0     0.943255      0.235814      0.268376     Biso  1.000000 H
   H736       1.0     0.798601      0.055600      0.402681     Biso  1.000000 H
   H737       1.0     0.851801      0.057447      0.274243     Biso  1.000000 H
   H738       1.0     0.989872      0.168568      0.214935     Biso  1.000000 H
   H739       1.0     0.958098      0.202884      0.099472     Biso  1.000000 H
   H740       1.0     0.845351      0.145283      0.097527     Biso  1.000000 H
   H741       1.0     0.898542      0.169282      0.060253     Biso  1.000000 H
   H742       1.0     0.930252      0.138533      0.108323     Biso  1.000000 H
   H743       1.0     0.887998      0.155855      0.347477     Biso  1.000000 H
   H744       1.0     0.922345      0.132843      0.275731     Biso  1.000000 H
   H745       1.0     0.858175      0.182205      0.205494     Biso  1.000000 H
   H746       1.0     0.770242      0.169602      0.260108     Biso  1.000000 H
   H747       1.0     0.721043      0.141598      0.267162     Biso  1.000000 H
   H748       1.0     0.757436      0.155323      0.368645     Biso  1.000000 H
   H749       1.0     0.812098      0.110384      0.408293     Biso  1.000000 H
   H750       1.0     0.870880      0.098869      0.345284     Biso  1.000000 H
   H751       1.0     0.821506      0.123717      0.214935     Biso  1.000000 H
   H752       1.0     0.827577      0.072702      0.169206     Biso  1.000000 H
   H753       1.0     0.787388      0.047443      0.227742     Biso  1.000000 H
   H754       1.0     0.803252      0.256181      0.385314     Biso  1.000000 H
   H755       1.0     0.244510      0.509595      0.024313     Biso  1.000000 H
   H756       1.0     0.307797      0.517389      0.079611     Biso  1.000000 H
   H757       1.0     0.583837      0.617485      0.810269     Biso  1.000000 H
   H758       1.0     0.575216      0.586357      0.954243     Biso  1.000000 H
   H759       1.0     0.495515      0.586193      0.948195     Biso  1.000000 H
   H760       1.0     0.491061      0.634182      0.949221     Biso  1.000000 H
   H761       1.0     0.539395      0.568443      0.192520     Biso  1.000000 H
   H762       1.0     0.518609      0.551027      0.089850     Biso  1.000000 H
   H763       1.0     0.536936      0.644042      0.803403     Biso  1.000000 H
   H764       1.0     0.592257      0.565490      0.102047     Biso  1.000000 H
   H765       1.0     0.426203      0.584774      0.052421     Biso  1.000000 H
   H766       1.0     0.548721      0.610639      0.111776     Biso  1.000000 H
   H767       1.0     0.422531      0.655465      0.215847     Biso  1.000000 H
   H768       1.0     0.385936      0.625751      0.258452     Biso  1.000000 H
   H769       1.0     0.469602      0.630047      0.258385     Biso  1.000000 H
   H770       1.0     0.323299      0.614928      0.127191     Biso  1.000000 H
   H771       1.0     0.444073      0.585703      0.168193     Biso  1.000000 H
   H772       1.0     0.501371      0.613313      0.802773     Biso  1.000000 H
   H773       1.0     0.608986      0.664883      0.860236     Biso  1.000000 H
   H774       1.0     0.630555      0.627623      0.962169     Biso  1.000000 H
   H775       1.0     0.600558      0.696531      0.615470     Biso  1.000000 H
   H776       1.0     0.531492      0.688162      0.669125     Biso  1.000000 H
   H777       1.0     0.500433      0.698050      0.818497     Biso  1.000000 H
   H778       1.0     0.500185      0.731203      0.794405     Biso  1.000000 H
   H779       1.0     0.614924      0.698588      0.770421     Biso  1.000000 H
   H780       1.0     0.502136      0.754526      0.930856     Biso  1.000000 H
   H781       1.0     0.455226      0.728671      0.951058     Biso  1.000000 H
   H782       1.0     0.506971      0.738631      0.033479     Biso  1.000000 H
   H783       1.0     0.508065      0.680710      0.943046     Biso  1.000000 H
   H784       1.0     0.547064      0.690936      0.029067     Biso  1.000000 H
   H785       1.0     0.592298      0.726903      0.932036     Biso  1.000000 H
   H786       1.0     0.695394      0.663570      0.988433     Biso  1.000000 H
   H787       1.0     0.694424      0.690290      0.914267     Biso  1.000000 H
   H788       1.0     0.658657      0.691983      0.023442     Biso  1.000000 H
   H789       1.0     0.588667      0.644200      0.045810     Biso  1.000000 H
   H790       1.0     0.361167      0.617216      0.021819     Biso  1.000000 H
   H791       1.0     0.452048      0.637353      0.074280     Biso  1.000000 H
   H792       1.0     0.368131      0.693574      0.003722     Biso  1.000000 H
   H793       1.0     0.430443      0.674683      0.047473     Biso  1.000000 H
   H794       1.0     0.014972      0.680095      0.377979     Biso  1.000000 H
   H795       1.0     0.987450      0.700986      0.295458     Biso  1.000000 H
   H796       1.0     0.079349      0.692778      0.194592     Biso  1.000000 H
   H797       1.0     0.975308      0.736431      0.415126     Biso  1.000000 H
   H798       1.0     0.020237      0.719181      0.484471     Biso  1.000000 H
   H799       1.0     0.041531      0.750611      0.455518     Biso  1.000000 H
   H800       1.0     0.047520      0.748505      0.244901     Biso  1.000000 H
   H801       1.0     0.114410      0.727670      0.238678     Biso  1.000000 H
   H802       1.0     0.102877      0.713463      0.391698     Biso  1.000000 H
   H803       1.0     0.192701      0.739318      0.363187     Biso  1.000000 H
   H804       1.0     0.200150      0.772336      0.391168     Biso  1.000000 H
   H805       1.0     0.155735      0.755667      0.455048     Biso  1.000000 H
   H806       1.0     0.180984      0.795455      0.252612     Biso  1.000000 H
   H807       1.0     0.122775      0.783121      0.183045     Biso  1.000000 H
   H808       1.0     0.089407      0.780443      0.340262     Biso  1.000000 H
   H809       1.0     0.002107      0.643724      0.247972     Biso  1.000000 H
   H810       1.0     0.530087      0.718056      0.614753     Biso  1.000000 H
   H811       1.0     0.042973      0.649599      0.146931     Biso  1.000000 H
   H812       1.0     0.136061      0.633644      0.193552     Biso  1.000000 H
   H813       1.0     0.391742      0.663586      0.949570     Biso  1.000000 H
   H814       1.0     0.283431      0.651106      0.960955     Biso  1.000000 H
   H815       1.0     0.264357      0.678364      0.014423     Biso  1.000000 H
   H816       1.0     0.327076      0.665628      0.137571     Biso  1.000000 H
   H817       1.0     0.168375      0.658586      0.955578     Biso  1.000000 H
   H818       1.0     0.187582      0.625031      0.952762     Biso  1.000000 H
   H819       1.0     0.129198      0.634450      0.027767     Biso  1.000000 H
   H820       1.0     0.156160      0.677101      0.115531     Biso  1.000000 H
   H821       1.0     0.223335      0.678634      0.169555     Biso  1.000000 H
   H822       1.0     0.231251      0.625235      0.092545     Biso  1.000000 H
   H823       1.0     0.247188      0.645543      0.314253     Biso  1.000000 H
   H824       1.0     0.194527      0.621071      0.339002     Biso  1.000000 H
   H825       1.0     0.246872      0.619528      0.254134     Biso  1.000000 H
   H826       1.0     0.157213      0.681220      0.313260     Biso  1.000000 H
   H827       1.0     0.108591      0.654943      0.344922     Biso  1.000000 H
   H828       1.0     0.981100      0.670323      0.178419     Biso  1.000000 H
   H829       1.0     0.669769      0.730072      0.640018     Biso  1.000000 H
   H830       1.0     0.620368      0.750775      0.812100     Biso  1.000000 H
   H831       1.0     0.577299      0.758143      0.716370     Biso  1.000000 H
   H832       1.0     0.958849      0.538971      0.754972     Biso  1.000000 H
   H833       1.0     0.056530      0.582320      0.739563     Biso  1.000000 H
   H834       1.0     0.993626      0.604058      0.951836     Biso  1.000000 H
   H835       1.0     0.023739      0.570845      0.965770     Biso  1.000000 H
   H836       1.0     0.052203      0.593471      0.884094     Biso  1.000000 H
   H837       1.0     0.898721      0.584207      0.947163     Biso  1.000000 H
   H838       1.0     0.911357      0.549129      0.927101     Biso  1.000000 H
   H839       1.0     0.956477      0.593093      0.804630     Biso  1.000000 H
   H840       1.0     0.776226      0.555254      0.934349     Biso  1.000000 H
   H841       1.0     0.753778      0.548334      0.830036     Biso  1.000000 H
   H842       1.0     0.810193      0.529145      0.884080     Biso  1.000000 H
   H843       1.0     0.863559      0.611608      0.825443     Biso  1.000000 H
   H844       1.0     0.797795      0.601129      0.881733     Biso  1.000000 H
   H845       1.0     0.866031      0.558887      0.770561     Biso  1.000000 H
   H846       1.0     0.799141      0.642195      0.705119     Biso  1.000000 H
   H847       1.0     0.014148      0.539841      0.838854     Biso  1.000000 H
   H848       1.0     0.727658      0.629324      0.673182     Biso  1.000000 H
   H849       1.0     0.997701      0.552910      0.590446     Biso  1.000000 H
   H850       1.0     0.961019      0.579932      0.642231     Biso  1.000000 H
   H851       1.0     0.194504      0.579057      0.978925     Biso  1.000000 H
   H852       1.0     0.176076      0.546593      0.961606     Biso  1.000000 H
   H853       1.0     0.299972      0.565845      0.039125     Biso  1.000000 H
   H854       1.0     0.266472      0.603247      0.872883     Biso  1.000000 H
   H855       1.0     0.324485      0.577114      0.880097     Biso  1.000000 H
   H856       1.0     0.292757      0.586980      0.779573     Biso  1.000000 H
   H857       1.0     0.196560      0.573183      0.726401     Biso  1.000000 H
   H858       1.0     0.154599      0.582618      0.827394     Biso  1.000000 H
   H859       1.0     0.264229      0.545124      0.834609     Biso  1.000000 H
   H860       1.0     0.182569      0.508832      0.857360     Biso  1.000000 H
   H861       1.0     0.134331      0.499671      0.768986     Biso  1.000000 H
   H862       1.0     0.208029      0.514175      0.746436     Biso  1.000000 H
   H863       1.0     0.077037      0.525520      0.684520     Biso  1.000000 H
   H864       1.0     0.119011      0.553941      0.643478     Biso  1.000000 H
   H865       1.0     0.108229      0.545874      0.840208     Biso  1.000000 H
   H866       1.0     0.032274      0.584626      0.589266     Biso  1.000000 H
   H867       1.0     0.310690      0.522595      0.966380     Biso  1.000000 H
   H868       1.0     0.743170      0.634951      0.789477     Biso  1.000000 H
   H869       1.0     0.873352      0.609524      0.652335     Biso  1.000000 H
   H870       1.0     0.884097      0.729205      0.569821     Biso  1.000000 H
   H871       1.0     0.883502      0.718727      0.461747     Biso  1.000000 H
   H872       1.0     0.818965      0.735014      0.496198     Biso  1.000000 H
   H873       1.0     0.748884      0.680632      0.619359     Biso  1.000000 H
   H874       1.0     0.735748      0.711285      0.568386     Biso  1.000000 H
   H875       1.0     0.856558      0.682641      0.573871     Biso  1.000000 H
   H876       1.0     0.811860      0.683180      0.764842     Biso  1.000000 H
   H877       1.0     0.872107      0.703108      0.732234     Biso  1.000000 H
   H878       1.0     0.825347      0.711455      0.826449     Biso  1.000000 H
   H879       1.0     0.742263      0.739948      0.803993     Biso  1.000000 H
   H880       1.0     0.706556      0.709615      0.776536     Biso  1.000000 H
   H881       1.0     0.810280      0.736972      0.670245     Biso  1.000000 H
   H882       1.0     0.736623      0.768681      0.615289     Biso  1.000000 H
   H883       1.0     0.657485      0.777785      0.616798     Biso  1.000000 H
   H884       1.0     0.707385      0.784116      0.714928     Biso  1.000000 H
   H885       1.0     0.896372      0.679389      0.418746     Biso  1.000000 H
   H886       1.0     0.855661      0.574656      0.650391     Biso  1.000000 H
   H887       1.0     0.773209      0.694361      0.420845     Biso  1.000000 H
   H888       1.0     0.885169      0.684685      0.257708     Biso  1.000000 H
   H889       1.0     0.752391      0.586213      0.724235     Biso  1.000000 H
   H890       1.0     0.730117      0.577862      0.476780     Biso  1.000000 H
   H891       1.0     0.779115      0.556479      0.518131     Biso  1.000000 H
   H892       1.0     0.729403      0.570538      0.589823     Biso  1.000000 H
   H893       1.0     0.837009      0.588063      0.407857     Biso  1.000000 H
   H894       1.0     0.886423      0.580544      0.488802     Biso  1.000000 H
   H895       1.0     0.777064      0.616722      0.546782     Biso  1.000000 H
   H896       1.0     0.974512      0.643766      0.467795     Biso  1.000000 H
   H897       1.0     0.976668      0.610185      0.505297     Biso  1.000000 H
   H898       1.0     0.971710      0.613455      0.389632     Biso  1.000000 H
   H899       1.0     0.807808      0.634570      0.376524     Biso  1.000000 H
   H900       1.0     0.878512      0.635331      0.322352     Biso  1.000000 H
   H901       1.0     0.880755      0.634154      0.524186     Biso  1.000000 H
   H902       1.0     0.807528      0.675822      0.264929     Biso  1.000000 H
   H903       1.0     0.830686      0.704934      0.308111     Biso  1.000000 H
   H904       1.0     0.772330      0.662587      0.471764     Biso  1.000000 H
   H905       1.0     0.758173      0.234940      0.315272     Biso  1.000000 H
   H906       1.0     0.185599      0.761217      0.205206     Biso  1.000000 H
   H907       1.0     0.714688      0.276101      0.239074     Biso  1.000000 H
   H908       1.0     0.534867      0.444636      0.230988     Biso  1.000000 H
   H909       1.0     0.591914      0.458497      0.168395     Biso  1.000000 H
   H910       1.0     0.606262      0.434063      0.243587     Biso  1.000000 H
   H911       1.0     0.663945      0.500333      0.355912     Biso  1.000000 H
   H912       1.0     0.668904      0.490870      0.243627     Biso  1.000000 H
   H913       1.0     0.582107      0.465751      0.370824     Biso  1.000000 H
   H914       1.0     0.465417      0.474572      0.280707     Biso  1.000000 H
   H915       1.0     0.723840      0.444976      0.474306     Biso  1.000000 H
   H916       1.0     0.673336      0.473580      0.483036     Biso  1.000000 H
   H917       1.0     0.777146      0.479815      0.305127     Biso  1.000000 H
   H918       1.0     0.749209      0.460751      0.225020     Biso  1.000000 H
   H919       1.0     0.678816      0.440879      0.341476     Biso  1.000000 H
   H920       1.0     0.730634      0.404650      0.323613     Biso  1.000000 H
   H921       1.0     0.757139      0.409754      0.217731     Biso  1.000000 H
   H922       1.0     0.752189      0.476890      0.460097     Biso  1.000000 H
   H923       1.0     0.550589      0.506702      0.229325     Biso  1.000000 H
   H924       1.0     0.560432      0.513654      0.338358     Biso  1.000000 H
   H925       1.0     0.469235      0.535984      0.320334     Biso  1.000000 H
   H926       1.0     0.544600      0.435821      0.547419     Biso  1.000000 H
   H927       1.0     0.401727      0.383588      0.418485     Biso  1.000000 H
   H928       1.0     0.347794      0.403406      0.475117     Biso  1.000000 H
   H929       1.0     0.371707      0.408995      0.365909     Biso  1.000000 H
   H930       1.0     0.450872      0.452498      0.566247     Biso  1.000000 H
   H931       1.0     0.377017      0.442540      0.542853     Biso  1.000000 H
   H932       1.0     0.465921      0.422076      0.404920     Biso  1.000000 H
   H933       1.0     0.337831      0.499154      0.426337     Biso  1.000000 H
   H934       1.0     0.308419      0.466868      0.459480     Biso  1.000000 H
   H935       1.0     0.353558      0.486220      0.541056     Biso  1.000000 H
   H936       1.0     0.508408      0.475675      0.452447     Biso  1.000000 H
   H937       1.0     0.463494      0.505309      0.457449     Biso  1.000000 H
   H938       1.0     0.401942      0.456554      0.372071     Biso  1.000000 H
   H939       1.0     0.441985      0.520271      0.216176     Biso  1.000000 H
   H940       1.0     0.400743      0.519187      0.319563     Biso  1.000000 H
   H941       1.0     0.801673      0.391849      0.296135     Biso  1.000000 H
   H942       1.0     0.882513      0.462244      0.283811     Biso  1.000000 H
   H943       1.0     0.854782      0.446349      0.195423     Biso  1.000000 H
   H944       1.0     0.810051      0.438493      0.386682     Biso  1.000000 H
   H945       1.0     0.175600      0.487195      0.031622     Biso  1.000000 H
   H946       1.0     0.171493      0.493842      0.136263     Biso  1.000000 H
   H947       1.0     0.042135      0.508924      0.994086     Biso  1.000000 H
   H948       1.0     0.097058      0.520273      0.066690     Biso  1.000000 H
   H949       1.0     0.067747      0.474734      0.159812     Biso  1.000000 H
   H950       1.0     0.913811      0.506414      0.182884     Biso  1.000000 H
   H951       1.0     0.926690      0.506312      0.058946     Biso  1.000000 H
   H952       1.0     0.946208      0.478890      0.123490     Biso  1.000000 H
   H953       1.0     0.964705      0.549753      0.056545     Biso  1.000000 H
   H954       1.0     0.033894      0.556853      0.107800     Biso  1.000000 H
   H955       1.0     0.017623      0.510720      0.205628     Biso  1.000000 H
   H956       1.0     0.010535      0.540384      0.302076     Biso  1.000000 H
   H957       1.0     0.039265      0.569752      0.258660     Biso  1.000000 H
   H958       1.0     0.971760      0.570272      0.330379     Biso  1.000000 H
   H959       1.0     0.972085      0.600038      0.135251     Biso  1.000000 H
   H960       1.0     0.181873      0.462653      0.100390     Biso  1.000000 H
   H961       1.0     0.482623      0.381593      0.511976     Biso  1.000000 H
   H962       1.0     0.075333      0.430022      0.132093     Biso  1.000000 H
   H963       1.0     0.007349      0.460385      0.015428     Biso  1.000000 H
   H964       1.0     0.980010      0.414554      0.385422     Biso  1.000000 H
   H965       1.0     0.952956      0.448689      0.383323     Biso  1.000000 H
   H966       1.0     0.908363      0.425947      0.431842     Biso  1.000000 H
   H967       1.0     0.000338      0.412006      0.235614     Biso  1.000000 H
   H968       1.0     0.990023      0.445625      0.207251     Biso  1.000000 H
   H969       1.0     0.895017      0.404960      0.275711     Biso  1.000000 H
   H970       1.0     0.882005      0.393693      0.035578     Biso  1.000000 H
   H971       1.0     0.908610      0.377319      0.126051     Biso  1.000000 H
   H972       1.0     0.854283      0.399329      0.136686     Biso  1.000000 H
   H973       1.0     0.989927      0.410012      0.982412     Biso  1.000000 H
   H974       1.0     0.013539      0.391839      0.072296     Biso  1.000000 H
   H975       1.0     0.930129      0.437388      0.083594     Biso  1.000000 H
   H976       1.0     0.116223      0.393042      0.037650     Biso  1.000000 H
   H977       1.0     0.118064      0.414175      0.939660     Biso  1.000000 H
   H978       1.0     0.159503      0.421767      0.031267     Biso  1.000000 H
   H979       1.0     0.080241      0.461256      0.960506     Biso  1.000000 H
   H980       1.0     0.457767      0.402500      0.592089     Biso  1.000000 H
   H981       1.0     0.586868      0.385262      0.445453     Biso  1.000000 H
   H982       1.0     0.626123      0.415953      0.446298     Biso  1.000000 H
   H983       1.0     0.120884      0.298761      0.962692     Biso  1.000000 H
   H984       1.0     0.098665      0.357407      0.799105     Biso  1.000000 H
   H985       1.0     0.122454      0.326508      0.758680     Biso  1.000000 H
   H986       1.0     0.059451      0.335858      0.934805     Biso  1.000000 H
   H987       1.0     0.218958      0.371475      0.774450     Biso  1.000000 H
   H988       1.0     0.274864      0.345131      0.804141     Biso  1.000000 H
   H989       1.0     0.217113      0.339324      0.723766     Biso  1.000000 H
   H990       1.0     0.157712      0.341794      0.005893     Biso  1.000000 H
   H991       1.0     0.174424      0.369013      0.944226     Biso  1.000000 H
   H992       1.0     0.192604      0.317260      0.869973     Biso  1.000000 H
   H993       1.0     0.294002      0.313081      0.953231     Biso  1.000000 H
   H994       1.0     0.322269      0.323886      0.064826     Biso  1.000000 H
   H995       1.0     0.250874      0.309939      0.056311     Biso  1.000000 H
   H996       1.0     0.249019      0.351572      0.146603     Biso  1.000000 H
   H997       1.0     0.209631      0.376743      0.088522     Biso  1.000000 H
   H998       1.0     0.096687      0.280637      0.872903     Biso  1.000000 H
   H999       1.0     0.281361      0.359603      0.944890     Biso  1.000000 H
   H1000      1.0     0.046087      0.289174      0.958790     Biso  1.000000 H
   H1001      1.0     0.002926      0.298235      0.803102     Biso  1.000000 H
   H1002      1.0     0.793844      0.231375      0.006839     Biso  1.000000 H
   H1003      1.0     0.829038      0.198598      0.964154     Biso  1.000000 H
   H1004      1.0     0.882953      0.273979      0.968566     Biso  1.000000 H
   H1005      1.0     0.815325      0.272518      0.913194     Biso  1.000000 H
   H1006      1.0     0.853523      0.230162      0.841086     Biso  1.000000 H
   H1007      1.0     0.860729      0.290170      0.684540     Biso  1.000000 H
   H1008      1.0     0.835360      0.257772      0.720400     Biso  1.000000 H
   H1009      1.0     0.794466      0.287316      0.758257     Biso  1.000000 H
   H1010      1.0     0.842649      0.318794      0.880788     Biso  1.000000 H
   H1011      1.0     0.883841      0.325755      0.787103     Biso  1.000000 H
   H1012      1.0     0.927688      0.275418      0.811188     Biso  1.000000 H
   H1013      1.0     0.964087      0.357451      0.988540     Biso  1.000000 H
   H1014      1.0     0.947536      0.363730      0.874794     Biso  1.000000 H
   H1015      1.0     0.893039      0.358642      0.944715     Biso  1.000000 H
   H1016      1.0     0.992762      0.333636      0.778721     Biso  1.000000 H
   H1017      1.0     0.949939      0.308950      0.952212     Biso  1.000000 H
   H1018      1.0     0.936048      0.601091      0.240361     Biso  1.000000 H
   H1019      1.0     0.399507      0.392448      0.131462     Biso  1.000000 H
   H1020      1.0     0.379586      0.363412      0.076594     Biso  1.000000 H
   H1021      1.0     0.476945      0.438787      0.855348     Biso  1.000000 H
   H1022      1.0     0.344122      0.427180      0.895097     Biso  1.000000 H
   H1023      1.0     0.371821      0.379697      0.858460     Biso  1.000000 H
   H1024      1.0     0.342075      0.387974      0.756896     Biso  1.000000 H
   H1025      1.0     0.398518      0.363448      0.770977     Biso  1.000000 H
   H1026      1.0     0.497860      0.375394      0.699044     Biso  1.000000 H
   H1027      1.0     0.516938      0.380534      0.806025     Biso  1.000000 H
   H1028      1.0     0.417884      0.417540      0.722579     Biso  1.000000 H
   H1029      1.0     0.590787      0.422374      0.840215     Biso  1.000000 H
   H1030      1.0     0.617159      0.390144      0.808741     Biso  1.000000 H
   H1031      1.0     0.645321      0.420202      0.757929     Biso  1.000000 H
   H1032      1.0     0.584318      0.383038      0.621163     Biso  1.000000 H
   H1033      1.0     0.625244      0.413763      0.622685     Biso  1.000000 H
   H1034      1.0     0.536497      0.430366      0.701994     Biso  1.000000 H
   H1035      1.0     0.561875      0.413679      0.392750     Biso  1.000000 H
   H1036      1.0     0.444407      0.411179      0.919678     Biso  1.000000 H
   H1037      1.0     0.366579      0.366406      0.193271     Biso  1.000000 H
   H1038      1.0     0.324242      0.469236      0.816726     Biso  1.000000 H
   H1039      1.0     0.394621      0.469522      0.766357     Biso  1.000000 H
   H1040      1.0     0.256400      0.402085      0.217128     Biso  1.000000 H
   H1041      1.0     0.236374      0.420130      0.131711     Biso  1.000000 H
   H1042      1.0     0.303255      0.397856      0.036765     Biso  1.000000 H
   H1043      1.0     0.278564      0.443535      0.315426     Biso  1.000000 H
   H1044      1.0     0.323359      0.469246      0.268517     Biso  1.000000 H
   H1045      1.0     0.246826      0.463597      0.229204     Biso  1.000000 H
   H1046      1.0     0.338861      0.473019      0.128572     Biso  1.000000 H
   H1047      1.0     0.295499      0.451097      0.057457     Biso  1.000000 H
   H1048      1.0     0.366217      0.429251      0.211656     Biso  1.000000 H
   H1049      1.0     0.494449      0.446976      0.046722     Biso  1.000000 H
   H1050      1.0     0.463348      0.473688      0.108645     Biso  1.000000 H
   H1051      1.0     0.458362      0.439626      0.145047     Biso  1.000000 H
   H1052      1.0     0.431125      0.471892      0.938137     Biso  1.000000 H
   H1053      1.0     0.356277      0.475109      0.954565     Biso  1.000000 H
   H1054      1.0     0.393248      0.424956      0.033895     Biso  1.000000 H
   H1055      1.0     0.337378      0.445849      0.738309     Biso  1.000000 H
   H1056      1.0     0.919218      0.547554      0.215203     Biso  1.000000 H
   H1057      1.0     0.819537      0.615163      0.046977     Biso  1.000000 H
   H1058      1.0     0.859067      0.631202      0.142519     Biso  1.000000 H
   H1059      1.0     0.623523      0.390148      0.263702     Biso  1.000000 H
   H1060      1.0     0.642519      0.364913      0.341925     Biso  1.000000 H
   H1061      1.0     0.505766      0.328644      0.295498     Biso  1.000000 H
   H1062      1.0     0.533012      0.357159      0.352439     Biso  1.000000 H
   H1063      1.0     0.608061      0.332715      0.211442     Biso  1.000000 H
   H1064      1.0     0.609943      0.277508      0.381278     Biso  1.000000 H
   H1065      1.0     0.541460      0.282318      0.332015     Biso  1.000000 H
   H1066      1.0     0.604472      0.294850      0.270260     Biso  1.000000 H
   H1067      1.0     0.497969      0.320975      0.462142     Biso  1.000000 H
   H1068      1.0     0.554004      0.341182      0.495762     Biso  1.000000 H
   H1069      1.0     0.626609      0.328588      0.390035     Biso  1.000000 H
   H1070      1.0     0.486455      0.284092      0.570505     Biso  1.000000 H
   H1071      1.0     0.536103      0.283431      0.661233     Biso  1.000000 H
   H1072      1.0     0.490653      0.312547      0.627915     Biso  1.000000 H
   H1073      1.0     0.629520      0.306057      0.668448     Biso  1.000000 H
   H1074      1.0     0.672667      0.363754      0.233536     Biso  1.000000 H
   H1075      1.0     0.600553      0.334735      0.626882     Biso  1.000000 H
   H1076      1.0     0.607979      0.391627      0.110395     Biso  1.000000 H
   H1077      1.0     0.520253      0.344583      0.127547     Biso  1.000000 H
   H1078      1.0     0.756786      0.392930      0.838881     Biso  1.000000 H
   H1079      1.0     0.768603      0.427700      0.829862     Biso  1.000000 H
   H1080      1.0     0.816076      0.408509      0.903130     Biso  1.000000 H
   H1081      1.0     0.710260      0.394311      0.083822     Biso  1.000000 H
   H1082      1.0     0.774843      0.380946      0.031340     Biso  1.000000 H
   H1083      1.0     0.685519      0.418485      0.933424     Biso  1.000000 H
   H1084      1.0     0.749451      0.329530      0.988105     Biso  1.000000 H
   H1085      1.0     0.702651      0.332189      0.900501     Biso  1.000000 H
   H1086      1.0     0.764702      0.350594      0.890410     Biso  1.000000 H
   H1087      1.0     0.661908      0.344092      0.095087     Biso  1.000000 H
   H1088      1.0     0.606221      0.335107      0.017688     Biso  1.000000 H
   H1089      1.0     0.661583      0.371805      0.917948     Biso  1.000000 H
   H1090      1.0     0.528658      0.365660      0.975626     Biso  1.000000 H
   H1091      1.0     0.515500      0.396481      0.034894     Biso  1.000000 H
   H1092      1.0     0.576374      0.397195      0.957844     Biso  1.000000 H
   H1093      1.0     0.515999      0.377097      0.177245     Biso  1.000000 H
   H1094      1.0     0.761799      0.463812      0.896418     Biso  1.000000 H
   H1095      1.0     0.593163      0.283107      0.523528     Biso  1.000000 H
   H1096      1.0     0.742076      0.285010      0.613130     Biso  1.000000 H
   H1097      1.0     0.018016      0.448819      0.733193     Biso  1.000000 H
   H1098      1.0     0.949335      0.440190      0.791441     Biso  1.000000 H
   H1099      1.0     0.973340      0.417872      0.614250     Biso  1.000000 H
   H1100      1.0     0.951981      0.495794      0.782121     Biso  1.000000 H
   H1101      1.0     0.882687      0.500327      0.727158     Biso  1.000000 H
   H1102      1.0     0.890530      0.474652      0.805824     Biso  1.000000 H
   H1103      1.0     0.990784      0.463708      0.569962     Biso  1.000000 H
   H1104      1.0     0.999679      0.494749      0.612486     Biso  1.000000 H
   H1105      1.0     0.888653      0.454114      0.657451     Biso  1.000000 H
   H1106      1.0     0.852049      0.521815      0.506980     Biso  1.000000 H
   H1107      1.0     0.840699      0.498978      0.599116     Biso  1.000000 H
   H1108      1.0     0.900223      0.524175      0.606941     Biso  1.000000 H
   H1109      1.0     0.930724      0.501380      0.379850     Biso  1.000000 H
   H1110      1.0     0.942083      0.073036      0.461666     Biso  1.000000 H
   H1111      1.0     0.888044      0.475427      0.507329     Biso  1.000000 H
   H1112      1.0     0.020196      0.375444      0.707016     Biso  1.000000 H
   H1113      1.0     0.752546      0.298635      0.502239     Biso  1.000000 H
   H1114      1.0     0.997834      0.396983      0.803531     Biso  1.000000 H
   H1115      1.0     0.867881      0.389021      0.570760     Biso  1.000000 H
   H1116      1.0     0.689424      0.278161      0.532071     Biso  1.000000 H
   H1117      1.0     0.746004      0.321938      0.682381     Biso  1.000000 H
   H1118      1.0     0.705091      0.351244      0.667697     Biso  1.000000 H
   H1119      1.0     0.677442      0.331004      0.509099     Biso  1.000000 H
   H1120      1.0     0.731797      0.362433      0.462069     Biso  1.000000 H
   H1121      1.0     0.714184      0.384677      0.563371     Biso  1.000000 H
   H1122      1.0     0.785442      0.387748      0.507979     Biso  1.000000 H
   H1123      1.0     0.824894      0.352365      0.712213     Biso  1.000000 H
   H1124      1.0     0.783648      0.379371      0.691916     Biso  1.000000 H
   H1125      1.0     0.809030      0.338764      0.544154     Biso  1.000000 H
   H1126      1.0     0.961207      0.368184      0.570317     Biso  1.000000 H
   H1127      1.0     0.948177      0.348168      0.664847     Biso  1.000000 H
   H1128      1.0     0.906641      0.341506      0.566596     Biso  1.000000 H
   H1129      1.0     0.894458      0.391969      0.766887     Biso  1.000000 H
   H1130      1.0     0.863934      0.416327      0.704542     Biso  1.000000 H
   H1131      1.0     0.059419      0.408815      0.734943     Biso  1.000000 H
   H1132      1.0     0.980129      0.518128      0.456007     Biso  1.000000 H
   H1133      1.0     0.799567      0.430428      0.033466     Biso  1.000000 H
   H1134      1.0     0.798532      0.480061      0.086739     Biso  1.000000 H
   H1135      1.0     0.560616      0.597148      0.459755     Biso  1.000000 H
   H1136      1.0     0.527102      0.622789      0.411089     Biso  1.000000 H
   H1137      1.0     0.667516      0.617312      0.427718     Biso  1.000000 H
   H1138      1.0     0.662380      0.634188      0.566583     Biso  1.000000 H
   H1139      1.0     0.613290      0.646991      0.652784     Biso  1.000000 H
   H1140      1.0     0.619663      0.611830      0.631408     Biso  1.000000 H
   H1141      1.0     0.499590      0.644484      0.647259     Biso  1.000000 H
   H1142      1.0     0.506449      0.610078      0.621599     Biso  1.000000 H
   H1143      1.0     0.559183      0.654106      0.517849     Biso  1.000000 H
   H1144      1.0     0.475741      0.666460      0.450355     Biso  1.000000 H
   H1145      1.0     0.398307      0.668234      0.460553     Biso  1.000000 H
   H1146      1.0     0.442946      0.675936      0.553152     Biso  1.000000 H
   H1147      1.0     0.353805      0.641766      0.587168     Biso  1.000000 H
   H1148      1.0     0.393926      0.619520      0.652751     Biso  1.000000 H
   H1149      1.0     0.449828      0.617729      0.484042     Biso  1.000000 H
   H1150      1.0     0.599985      0.661694      0.325940     Biso  1.000000 H
   H1151      1.0     0.287331      0.595611      0.416527     Biso  1.000000 H
   H1152      1.0     0.675726      0.658256      0.344057     Biso  1.000000 H
   H1153      1.0     0.724389      0.613345      0.302941     Biso  1.000000 H
   H1154      1.0     0.899806      0.621412      0.051657     Biso  1.000000 H
   H1155      1.0     0.810610      0.605573      0.249125     Biso  1.000000 H
   H1156      1.0     0.847306      0.574075      0.276704     Biso  1.000000 H
   H1157      1.0     0.871901      0.574323      0.092069     Biso  1.000000 H
   H1158      1.0     0.813929      0.533334      0.136384     Biso  1.000000 H
   H1159      1.0     0.796765      0.535710      0.254536     Biso  1.000000 H
   H1160      1.0     0.744342      0.525612      0.189328     Biso  1.000000 H
   H1161      1.0     0.704675      0.564934      0.290342     Biso  1.000000 H
   H1162      1.0     0.674686      0.570314      0.179089     Biso  1.000000 H
   H1163      1.0     0.761186      0.577282      0.111635     Biso  1.000000 H
   H1164      1.0     0.680469      0.616500      0.109308     Biso  1.000000 H
   H1165      1.0     0.661615      0.643572      0.185466     Biso  1.000000 H
   H1166      1.0     0.740702      0.630815      0.168227     Biso  1.000000 H
   H1167      1.0     0.613789      0.586157      0.326027     Biso  1.000000 H
   H1168      1.0     0.588484      0.614242      0.261121     Biso  1.000000 H
   H1169      1.0     0.628440      0.664214      0.431587     Biso  1.000000 H
   H1170      1.0     0.727118      0.438207      0.075004     Biso  1.000000 H
   H1171      1.0     0.319618      0.626524      0.426746     Biso  1.000000 H
   H1172      1.0     0.424427      0.576133      0.530428     Biso  1.000000 H
   H1173      1.0     0.600937      0.544331      0.715874     Biso  1.000000 H
   H1174      1.0     0.735886      0.480551      0.658980     Biso  1.000000 H
   H1175      1.0     0.722425      0.459114      0.746047     Biso  1.000000 H
   H1176      1.0     0.679942      0.455529      0.650190     Biso  1.000000 H
   H1177      1.0     0.633911      0.518392      0.837962     Biso  1.000000 H
   H1178      1.0     0.709006      0.507271      0.828226     Biso  1.000000 H
   H1179      1.0     0.609028      0.478480      0.735185     Biso  1.000000 H
   H1180      1.0     0.582285      0.464893      0.986737     Biso  1.000000 H
   H1181      1.0     0.569937      0.495932      0.951320     Biso  1.000000 H
   H1182      1.0     0.555959      0.467114      0.879903     Biso  1.000000 H
   H1183      1.0     0.672974      0.474222      0.038716     Biso  1.000000 H
   H1184      1.0     0.697574      0.503208      0.994233     Biso  1.000000 H
   H1185      1.0     0.661986      0.458459      0.866821     Biso  1.000000 H
   H1186      1.0     0.845479      0.468820      0.001174     Biso  1.000000 H
   H1187      1.0     0.813810      0.501514      0.995910     Biso  1.000000 H
   H1188      1.0     0.628183      0.497075      0.588690     Biso  1.000000 H
   H1189      1.0     0.367284      0.599246      0.396479     Biso  1.000000 H
   H1190      1.0     0.686329      0.517059      0.631046     Biso  1.000000 H
   H1191      1.0     0.564049      0.563046      0.560937     Biso  1.000000 H
   H1192      1.0     0.358544      0.560852      0.492162     Biso  1.000000 H
   H1193      1.0     0.303031      0.602819      0.564685     Biso  1.000000 H
   H1194      1.0     0.295279      0.537920      0.700854     Biso  1.000000 H
   H1195      1.0     0.269663      0.566415      0.643297     Biso  1.000000 H
   H1196      1.0     0.289076      0.535842      0.581629     Biso  1.000000 H
   H1197      1.0     0.416451      0.528178      0.577438     Biso  1.000000 H
   H1198      1.0     0.390950      0.518894      0.687839     Biso  1.000000 H
   H1199      1.0     0.374733      0.568581      0.694102     Biso  1.000000 H
   H1200      1.0     0.491802      0.539753      0.833315     Biso  1.000000 H
   H1201      1.0     0.490017      0.571611      0.790415     Biso  1.000000 H
   H1202      1.0     0.418159      0.554976      0.808915     Biso  1.000000 H
   H1203      1.0     0.514072      0.506424      0.629947     Biso  1.000000 H
   H1204      1.0     0.524652      0.506422      0.736479     Biso  1.000000 H
   H1205      1.0     0.489417      0.560975      0.646770     Biso  1.000000 H
   H1206      1.0     0.571247      0.533128      0.513618     Biso  1.000000 H
   H1207      1.0     0.635710      0.555154      0.536939     Biso  1.000000 H
   H1208      1.0     0.622383      0.725116      0.323754     Biso  1.000000 H

# Number_of_total_atoms: 1608
# Number_of_atom_type: 2
# Name_of_each_atom:  C  H
# Number_of_each_atom: 600 1208
# Created_by: Lihua Chen (lihua.chen@mse.gatech.edu)
# Tool: VASP
# K-points: 1 1 1
# Pseudopotential: PBE-HSE06
# Material_class: MC_Pol
# Geometry_class: GC_PD
# Bandgap_(eV): 6.30

# Note: average bandgap of 5 configurations
# Note:  HSE06 Band gap is derived from PBE band gap, based on Eg (HSE06)=1.140*Eg (PBE) + 0.799, R2=0.97

