#======================================================================

# Note: Amorphous region of isotactic polystyrene
# Common_name: Amorphous region
#----------------------------------------------------------------------

data_VESTA_phase_1


_chemical_name_common                  'C  H                                  '
_cell_length_a                         39.91776
_cell_length_b                         32.57383
_cell_length_c                         21.53144
_cell_angle_alpha                      90
_cell_angle_beta                       90
_cell_angle_gamma                      90
_space_group_name_H-M_alt              'P 1'
_space_group_IT_number                 1

loop_
_space_group_symop_operation_xyz
   'x, y, z'

loop_
   _atom_site_label
   _atom_site_occupancy
   _atom_site_fract_x
   _atom_site_fract_y
   _atom_site_fract_z
   _atom_site_adp_type
   _atom_site_B_iso_or_equiv
   _atom_site_type_symbol
   C1         1.0     0.878799      0.131855      0.384049     Biso  1.000000 C
   C2         1.0     0.636360      0.515829      0.828886     Biso  1.000000 C
   C3         1.0     0.668654      0.515064      0.797388     Biso  1.000000 C
   C4         1.0     0.668261      0.512363      0.731791     Biso  1.000000 C
   C5         1.0     0.606805      0.510969      0.794602     Biso  1.000000 C
   C6         1.0     0.607218      0.511202      0.729864     Biso  1.000000 C
   C7         1.0     0.638059      0.513364      0.697483     Biso  1.000000 C
   C8         1.0     0.555830      0.578023      0.473021     Biso  1.000000 C
   C9         1.0     0.603941      0.431270      0.629230     Biso  1.000000 C
   C10        1.0     0.581237      0.556644      0.438165     Biso  1.000000 C
   C11        1.0     0.564330      0.600820      0.527634     Biso  1.000000 C
   C12        1.0     0.596759      0.597885      0.551000     Biso  1.000000 C
   C13        1.0     0.621352      0.575146      0.521095     Biso  1.000000 C
   C14        1.0     0.759985      0.515322      0.442939     Biso  1.000000 C
   C15        1.0     0.736762      0.542040      0.414437     Biso  1.000000 C
   C16        1.0     0.723858      0.576015      0.444421     Biso  1.000000 C
   C17        1.0     0.768174      0.524897      0.505211     Biso  1.000000 C
   C18        1.0     0.615117      0.559625      0.460035     Biso  1.000000 C
   C19        1.0     0.753376      0.556945      0.538785     Biso  1.000000 C
   C20        1.0     0.568250      0.437266      0.624316     Biso  1.000000 C
   C21        1.0     0.616960      0.411064      0.682222     Biso  1.000000 C
   C22        1.0     0.525034      0.477350      0.252813     Biso  1.000000 C
   C23        1.0     0.534173      0.471235      0.314114     Biso  1.000000 C
   C24        1.0     0.668394      0.484583      0.210637     Biso  1.000000 C
   C25        1.0     0.668386      0.503322      0.267582     Biso  1.000000 C
   C26        1.0     0.654297      0.483708      0.318015     Biso  1.000000 C
   C27        1.0     0.652408      0.446844      0.201353     Biso  1.000000 C
   C28        1.0     0.637600      0.426214      0.249956     Biso  1.000000 C
   C29        1.0     0.547092      0.423104      0.670662     Biso  1.000000 C
   C30        1.0     0.637132      0.443973      0.310779     Biso  1.000000 C
   C31        1.0     0.614100      0.287682      0.437928     Biso  1.000000 C
   C32        1.0     0.607691      0.329320      0.451638     Biso  1.000000 C
   C33        1.0     0.674867      0.302535      0.434305     Biso  1.000000 C
   C34        1.0     0.668562      0.343076      0.448712     Biso  1.000000 C
   C35        1.0     0.635353      0.356750      0.457430     Biso  1.000000 C
   C36        1.0     0.559575      0.405433      0.724899     Biso  1.000000 C
   C37        1.0     0.594630      0.399201      0.730709     Biso  1.000000 C
   C38        1.0     0.648270      0.273392      0.435192     Biso  1.000000 C
   C39        1.0     0.503039      0.511666      0.238550     Biso  1.000000 C
   C40        1.0     0.731361      0.581882      0.506725     Biso  1.000000 C
   C41        1.0     0.814730      0.761087      0.488273     Biso  1.000000 C
   C42        1.0     0.961960      0.581160      0.651411     Biso  1.000000 C
   C43        1.0     0.943221      0.616498      0.637701     Biso  1.000000 C
   C44        1.0     0.951601      0.797536      0.836090     Biso  1.000000 C
   C45        1.0     0.972512      0.766257      0.854403     Biso  1.000000 C
   C46        1.0     0.965893      0.725236      0.833494     Biso  1.000000 C
   C47        1.0     0.921436      0.789613      0.802149     Biso  1.000000 C
   C48        1.0     0.913638      0.751853      0.784082     Biso  1.000000 C
   C49        1.0     0.987410      0.568512      0.609904     Biso  1.000000 C
   C50        1.0     0.936087      0.718022      0.798596     Biso  1.000000 C
   C51        1.0     0.893329      0.623384      0.050506     Biso  1.000000 C
   C52        1.0     0.912390      0.625708      0.994105     Biso  1.000000 C
   C53        1.0     0.845075      0.611415      0.983758     Biso  1.000000 C
   C54        1.0     0.863931      0.615550      0.929103     Biso  1.000000 C
   C55        1.0     0.897164      0.625358      0.935386     Biso  1.000000 C
   C56        1.0     0.959615      0.432943      0.849117     Biso  1.000000 C
   C57        1.0     0.931918      0.444575      0.883518     Biso  1.000000 C
   C58        1.0     0.859637      0.613026      0.042332     Biso  1.000000 C
   C59        1.0     0.796224      0.795848      0.504459     Biso  1.000000 C
   C60        1.0     0.952651      0.640862      0.586018     Biso  1.000000 C
   C61        1.0     0.997360      0.592267      0.557195     Biso  1.000000 C
   C62        1.0     0.804381      0.721813      0.507213     Biso  1.000000 C
   C63        1.0     0.765842      0.789613      0.540002     Biso  1.000000 C
   C64        1.0     0.755959      0.751760      0.560377     Biso  1.000000 C
   C65        1.0     0.774752      0.716054      0.543978     Biso  1.000000 C
   C66        1.0     0.817560      0.701456      0.840395     Biso  1.000000 C
   C67        1.0     0.830577      0.725565      0.790450     Biso  1.000000 C
   C68        1.0     0.828102      0.710645      0.730886     Biso  1.000000 C
   C69        1.0     0.979999      0.629693      0.547178     Biso  1.000000 C
   C70        1.0     0.799518      0.666069      0.827410     Biso  1.000000 C
   C71        1.0     0.809236      0.673956      0.717891     Biso  1.000000 C
   C72        1.0     0.869510      0.465635      0.671498     Biso  1.000000 C
   C73        1.0     0.856959      0.485151      0.617182     Biso  1.000000 C
   C74        1.0     0.851478      0.528624      0.619504     Biso  1.000000 C
   C75        1.0     0.875049      0.488515      0.727073     Biso  1.000000 C
   C76        1.0     0.868505      0.531863      0.728039     Biso  1.000000 C
   C77        1.0     0.856874      0.552613      0.674020     Biso  1.000000 C
   C78        1.0     0.794007      0.654026      0.765291     Biso  1.000000 C
   C79        1.0     0.928333      0.485958      0.903447     Biso  1.000000 C
   C80        1.0     0.521599      0.494459      0.362624     Biso  1.000000 C
   C81        1.0     0.489982      0.534454      0.288964     Biso  1.000000 C
   C82        1.0     0.451270      0.347780      0.777938     Biso  1.000000 C
   C83        1.0     0.431171      0.319533      0.813667     Biso  1.000000 C
   C84        1.0     0.550857      0.263519      0.766689     Biso  1.000000 C
   C85        1.0     0.541869      0.223840      0.744624     Biso  1.000000 C
   C86        1.0     0.509813      0.209920      0.760275     Biso  1.000000 C
   C87        1.0     0.531678      0.287038      0.810797     Biso  1.000000 C
   C88        1.0     0.501543      0.268075      0.828338     Biso  1.000000 C
   C89        1.0     0.460501      0.385973      0.804090     Biso  1.000000 C
   C90        1.0     0.490142      0.230851      0.802813     Biso  1.000000 C
   C91        1.0     0.409123      0.095083      0.727899     Biso  1.000000 C
   C92        1.0     0.427681      0.112075      0.774696     Biso  1.000000 C
   C93        1.0     0.358106      0.112876      0.783975     Biso  1.000000 C
   C94        1.0     0.377338      0.132444      0.828900     Biso  1.000000 C
   C95        1.0     0.411826      0.130449      0.826639     Biso  1.000000 C
   C96        1.0     0.371303      0.174794      0.100770     Biso  1.000000 C
   C97        1.0     0.400658      0.197168      0.086807     Biso  1.000000 C
   C98        1.0     0.373808      0.094785      0.731401     Biso  1.000000 C
   C99        1.0     0.425740      0.181038      0.048727     Biso  1.000000 C
   C100       1.0     0.418009      0.332817      0.871094     Biso  1.000000 C
   C101       1.0     0.446630      0.396048      0.862405     Biso  1.000000 C
   C102       1.0     0.250700      0.230299      0.943393     Biso  1.000000 C
   C103       1.0     0.304839      0.234354      0.026730     Biso  1.000000 C
   C104       1.0     0.308541      0.216736      0.970177     Biso  1.000000 C
   C105       1.0     0.282307      0.212699      0.927324     Biso  1.000000 C
   C106       1.0     0.214335      0.238634      0.656520     Biso  1.000000 C
   C107       1.0     0.222900      0.264415      0.707882     Biso  1.000000 C
   C108       1.0     0.253230      0.256912      0.739951     Biso  1.000000 C
   C109       1.0     0.428150      0.369558      0.900340     Biso  1.000000 C
   C110       1.0     0.235829      0.207075      0.635955     Biso  1.000000 C
   C111       1.0     0.274221      0.224045      0.720747     Biso  1.000000 C
   C112       1.0     0.428646      0.237882      0.552728     Biso  1.000000 C
   C113       1.0     0.411869      0.274257      0.572499     Biso  1.000000 C
   C114       1.0     0.395931      0.274699      0.633168     Biso  1.000000 C
   C115       1.0     0.426794      0.201957      0.591917     Biso  1.000000 C
   C116       1.0     0.407049      0.203946      0.648341     Biso  1.000000 C
   C117       1.0     0.391960      0.239862      0.668544     Biso  1.000000 C
   C118       1.0     0.264330      0.200223      0.669724     Biso  1.000000 C
   C119       1.0     0.498296      0.526574      0.351106     Biso  1.000000 C
   C120       1.0     0.368304      0.132257      0.081002     Biso  1.000000 C
   C121       1.0     0.424472      0.140251      0.029823     Biso  1.000000 C
   C122       1.0     0.476103      0.287876      0.115191     Biso  1.000000 C
   C123       1.0     0.503402      0.259979      0.003797     Biso  1.000000 C
   C124       1.0     0.518949      0.251159      0.061313     Biso  1.000000 C
   C125       1.0     0.506343      0.265462      0.117544     Biso  1.000000 C
   C126       1.0     0.662582      0.250404      0.215314     Biso  1.000000 C
   C127       1.0     0.645061      0.234299      0.269412     Biso  1.000000 C
   C128       1.0     0.613857      0.249744      0.285699     Biso  1.000000 C
   C129       1.0     0.460273      0.297782      0.059062     Biso  1.000000 C
   C130       1.0     0.647796      0.279676      0.179083     Biso  1.000000 C
   C131       1.0     0.598134      0.280542      0.249404     Biso  1.000000 C
   C132       1.0     0.456165      0.278135      0.389320     Biso  1.000000 C
   C133       1.0     0.486517      0.285561      0.421608     Biso  1.000000 C
   C134       1.0     0.509186      0.313098      0.396858     Biso  1.000000 C
   C135       1.0     0.450255      0.297009      0.332245     Biso  1.000000 C
   C136       1.0     0.472679      0.326376      0.306302     Biso  1.000000 C
   C137       1.0     0.503036      0.333879      0.339602     Biso  1.000000 C
   C138       1.0     0.615630      0.293736      0.196528     Biso  1.000000 C
   C139       1.0     0.395886      0.116551      0.046128     Biso  1.000000 C
   C140       1.0     0.474633      0.287253      0.002957     Biso  1.000000 C
   C141       1.0     0.463916      0.176667      0.310723     Biso  1.000000 C
   C142       1.0     0.553167      0.133617      0.860570     Biso  1.000000 C
   C143       1.0     0.549241      0.164556      0.903833     Biso  1.000000 C
   C144       1.0     0.540155      0.153068      0.964465     Biso  1.000000 C
   C145       1.0     0.540686      0.093060      0.868837     Biso  1.000000 C
   C146       1.0     0.530816      0.083549      0.929265     Biso  1.000000 C
   C147       1.0     0.529481      0.113125      0.976229     Biso  1.000000 C
   C148       1.0     0.566923      0.009996      0.195724     Biso  1.000000 C
   C149       1.0     0.460020      0.175359      0.245001     Biso  1.000000 C
   C150       1.0     0.581863      0.045592      0.174909     Biso  1.000000 C
   C151       1.0     0.533496      0.013321      0.214576     Biso  1.000000 C
   C152       1.0     0.513124      0.047996      0.200345     Biso  1.000000 C
   C153       1.0     0.528118      0.084353      0.177195     Biso  1.000000 C
   C154       1.0     0.414507      0.137058      0.326904     Biso  1.000000 C
   C155       1.0     0.409895      0.137218      0.262101     Biso  1.000000 C
   C156       1.0     0.433258      0.153013      0.222257     Biso  1.000000 C
   C157       1.0     0.442765      0.154459      0.351450     Biso  1.000000 C
   C158       1.0     0.564089      0.083598      0.173716     Biso  1.000000 C
   C159       1.0     0.246431      0.248614      0.002575     Biso  1.000000 C
   C160       1.0     0.984546      0.462148      0.831854     Biso  1.000000 C
   C161       1.0     0.952428      0.515893      0.884930     Biso  1.000000 C
   C162       1.0     0.773415      0.783461      0.177441     Biso  1.000000 C
   C163       1.0     0.784715      0.742130      0.180921     Biso  1.000000 C
   C164       1.0     0.729219      0.810835      0.884698     Biso  1.000000 C
   C165       1.0     0.715741      0.823969      0.940570     Biso  1.000000 C
   C166       1.0     0.718610      0.797552      0.993130     Biso  1.000000 C
   C167       1.0     0.746008      0.773109      0.881131     Biso  1.000000 C
   C168       1.0     0.750936      0.747908      0.934643     Biso  1.000000 C
   C169       1.0     0.764489      0.804475      0.232220     Biso  1.000000 C
   C170       1.0     0.736248      0.760933      0.989340     Biso  1.000000 C
   C171       1.0     0.628602      0.740322      0.136724     Biso  1.000000 C
   C172       1.0     0.651196      0.713036      0.109568     Biso  1.000000 C
   C173       1.0     0.669133      0.758124      0.218686     Biso  1.000000 C
   C174       1.0     0.691409      0.729442      0.192779     Biso  1.000000 C
   C175       1.0     0.683034      0.708232      0.137000     Biso  1.000000 C
   C176       1.0     0.788401      0.589560      0.247017     Biso  1.000000 C
   C177       1.0     0.754245      0.594668      0.258604     Biso  1.000000 C
   C178       1.0     0.638745      0.764332      0.188934     Biso  1.000000 C
   C179       1.0     0.731463      0.596544      0.209523     Biso  1.000000 C
   C180       1.0     0.787143      0.724367      0.241852     Biso  1.000000 C
   C181       1.0     0.767054      0.786218      0.289828     Biso  1.000000 C
   C182       1.0     0.832932      0.669458      0.373172     Biso  1.000000 C
   C183       1.0     0.869818      0.606171      0.425904     Biso  1.000000 C
   C184       1.0     0.887512      0.639056      0.398256     Biso  1.000000 C
   C185       1.0     0.867678      0.670852      0.370845     Biso  1.000000 C
   C186       1.0     0.993795      0.774558      0.303501     Biso  1.000000 C
   C187       1.0     0.964806      0.798095      0.321744     Biso  1.000000 C
   C188       1.0     0.932116      0.790196      0.299033     Biso  1.000000 C
   C189       1.0     0.776090      0.745053      0.294087     Biso  1.000000 C
   C190       1.0     0.989414      0.743183      0.260587     Biso  1.000000 C
   C191       1.0     0.928985      0.757280      0.253872     Biso  1.000000 C
   C192       1.0     0.865732      0.788784      0.939520     Biso  1.000000 C
   C193       1.0     0.849358      0.813347      0.984608     Biso  1.000000 C
   C194       1.0     0.848644      0.797948      0.046378     Biso  1.000000 C
   C195       1.0     0.881189      0.751410      0.952315     Biso  1.000000 C
   C196       1.0     0.880898      0.737795      0.013751     Biso  1.000000 C
   C197       1.0     0.862478      0.759543      0.059919     Biso  1.000000 C
   C198       1.0     0.957804      0.732892      0.238392     Biso  1.000000 C
   C199       1.0     0.816556      0.637215      0.401981     Biso  1.000000 C
   C200       1.0     0.801836      0.590425      0.185333     Biso  1.000000 C
   C201       1.0     0.743353      0.597440      0.147255     Biso  1.000000 C
   C202       1.0     0.579634      0.383142      0.102294     Biso  1.000000 C
   C203       1.0     0.515655      0.390777      0.057690     Biso  1.000000 C
   C204       1.0     0.541192      0.382298      0.013815     Biso  1.000000 C
   C205       1.0     0.573015      0.380008      0.036112     Biso  1.000000 C
   C206       1.0     0.653724      0.209018      0.061932     Biso  1.000000 C
   C207       1.0     0.678001      0.236172      0.037944     Biso  1.000000 C
   C208       1.0     0.668431      0.268731      0.998996     Biso  1.000000 C
   C209       1.0     0.553776      0.394455      0.142987     Biso  1.000000 C
   C210       1.0     0.620117      0.211376      0.041400     Biso  1.000000 C
   C211       1.0     0.634454      0.271666      0.979861     Biso  1.000000 C
   C212       1.0     0.629123      0.166315      0.717459     Biso  1.000000 C
   C213       1.0     0.633457      0.162404      0.781811     Biso  1.000000 C
   C214       1.0     0.640349      0.197386      0.818794     Biso  1.000000 C
   C215       1.0     0.627858      0.205917      0.693048     Biso  1.000000 C
   C216       1.0     0.632355      0.241185      0.729005     Biso  1.000000 C
   C217       1.0     0.639732      0.236752      0.791824     Biso  1.000000 C
   C218       1.0     0.611867      0.242806      0.001541     Biso  1.000000 C
   C219       1.0     0.779562      0.595328      0.135290     Biso  1.000000 C
   C220       1.0     0.521645      0.396199      0.120704     Biso  1.000000 C
   C221       1.0     0.680574      0.403300      0.017380     Biso  1.000000 C
   C222       1.0     0.758396      0.552487      0.860027     Biso  1.000000 C
   C223       1.0     0.731574      0.581381      0.862530     Biso  1.000000 C
   C224       1.0     0.708396      0.582502      0.912239     Biso  1.000000 C
   C225       1.0     0.761555      0.525760      0.911022     Biso  1.000000 C
   C226       1.0     0.739595      0.525975      0.962486     Biso  1.000000 C
   C227       1.0     0.712828      0.554120      0.960954     Biso  1.000000 C
   C228       1.0     0.570067      0.615323      0.998861     Biso  1.000000 C
   C229       1.0     0.664418      0.423967      0.964284     Biso  1.000000 C
   C230       1.0     0.573651      0.583650      0.953337     Biso  1.000000 C
   C231       1.0     0.582728      0.609815      0.059448     Biso  1.000000 C
   C232       1.0     0.603032      0.574701      0.069719     Biso  1.000000 C
   C233       1.0     0.608150      0.541650      0.028263     Biso  1.000000 C
   C234       1.0     0.734319      0.404196      0.961697     Biso  1.000000 C
   C235       1.0     0.718494      0.427129      0.913725     Biso  1.000000 C
   C236       1.0     0.683963      0.436096      0.913985     Biso  1.000000 C
   C237       1.0     0.715152      0.393952      0.016111     Biso  1.000000 C
   C238       1.0     0.591461      0.546108      0.970308     Biso  1.000000 C
   C239       1.0     0.978967      0.505158      0.845314     Biso  1.000000 C
   C240       1.0     0.833954      0.602843      0.423619     Biso  1.000000 C
   C241       1.0     0.954718      0.126780      0.684572     Biso  1.000000 C
   C242       1.0     0.975395      0.406388      0.028976     Biso  1.000000 C
   C243       1.0     0.988239      0.336049      0.096726     Biso  1.000000 C
   C244       1.0     0.956641      0.355986      0.104670     Biso  1.000000 C
   C245       1.0     0.950521      0.391223      0.068622     Biso  1.000000 C
   C246       1.0     0.842582      0.486474      0.909341     Biso  1.000000 C
   C247       1.0     0.840696      0.501474      0.970479     Biso  1.000000 C
   C248       1.0     0.845643      0.475711      0.023148     Biso  1.000000 C
   C249       1.0     0.004809      0.384432      0.017599     Biso  1.000000 C
   C250       1.0     0.848143      0.444366      0.901487     Biso  1.000000 C
   C251       1.0     0.851044      0.432166      0.012207     Biso  1.000000 C
   C252       1.0     0.753827      0.474559      0.202226     Biso  1.000000 C
   C253       1.0     0.765984      0.474762      0.140349     Biso  1.000000 C
   C254       1.0     0.782701      0.441625      0.115470     Biso  1.000000 C
   C255       1.0     0.758750      0.438414      0.236952     Biso  1.000000 C
   C256       1.0     0.775805      0.404172      0.210010     Biso  1.000000 C
   C257       1.0     0.789315      0.405019      0.151543     Biso  1.000000 C
   C258       1.0     0.851365      0.416108      0.952794     Biso  1.000000 C
   C259       1.0     0.897765      0.288870      0.233929     Biso  1.000000 C
   C260       1.0     0.012716      0.349103      0.054180     Biso  1.000000 C
   C261       1.0     0.985255      0.461205      0.246612     Biso  1.000000 C
   C262       1.0     0.101786      0.524173      0.029724     Biso  1.000000 C
   C263       1.0     0.079771      0.495589      0.998889     Biso  1.000000 C
   C264       1.0     0.045378      0.504804      0.991500     Biso  1.000000 C
   C265       1.0     0.088419      0.561712      0.051586     Biso  1.000000 C
   C266       1.0     0.054679      0.571846      0.037534     Biso  1.000000 C
   C267       1.0     0.032669      0.542519      0.011418     Biso  1.000000 C
   C268       1.0     0.985932      0.628345      0.274274     Biso  1.000000 C
   C269       1.0     0.954830      0.474744      0.221570     Biso  1.000000 C
   C270       1.0     0.954585      0.619037      0.246687     Biso  1.000000 C
   C271       1.0     0.016208      0.611221      0.251563     Biso  1.000000 C
   C272       1.0     0.014607      0.580285      0.204790     Biso  1.000000 C
   C273       1.0     0.982878      0.568045      0.178686     Biso  1.000000 C
   C274       1.0     0.963651      0.485052      0.347535     Biso  1.000000 C
   C275       1.0     0.931412      0.490704      0.322971     Biso  1.000000 C
   C276       1.0     0.926114      0.484758      0.258233     Biso  1.000000 C
   C277       1.0     0.990606      0.468963      0.310575     Biso  1.000000 C
   C278       1.0     0.953222      0.590683      0.197350     Biso  1.000000 C
   C279       1.0     0.928413      0.155911      0.691789     Biso  1.000000 C
   C280       1.0     0.899421      0.279740      0.169661     Biso  1.000000 C
   C281       1.0     0.866744      0.292263      0.261094     Biso  1.000000 C
   C282       1.0     0.738971      0.216957      0.894214     Biso  1.000000 C
   C283       1.0     0.761079      0.234790      0.852758     Biso  1.000000 C
   C284       1.0     0.790916      0.215440      0.840219     Biso  1.000000 C
   C285       1.0     0.746006      0.179169      0.923176     Biso  1.000000 C
   C286       1.0     0.776534      0.159764      0.910572     Biso  1.000000 C
   C287       1.0     0.798486      0.176446      0.864068     Biso  1.000000 C
   C288       1.0     0.832283      0.990231      0.794504     Biso  1.000000 C
   C289       1.0     0.884633      0.228549      0.952566     Biso  1.000000 C
   C290       1.0     0.812325      0.015909      0.757707     Biso  1.000000 C
   C291       1.0     0.861027      0.005833      0.823243     Biso  1.000000 C
   C292       1.0     0.867498      0.049089      0.817977     Biso  1.000000 C
   C293       1.0     0.849361      0.074348      0.775058     Biso  1.000000 C
   C294       1.0     0.991065      0.167328      0.749328     Biso  1.000000 C
   C295       1.0     0.965257      0.194740      0.762700     Biso  1.000000 C
   C296       1.0     0.935606      0.188904      0.731178     Biso  1.000000 C
   C297       1.0     0.987342      0.133641      0.705857     Biso  1.000000 C
   C298       1.0     0.820587      0.057580      0.748520     Biso  1.000000 C
   C299       1.0     0.870387      0.277588      0.132732     Biso  1.000000 C
   C300       1.0     0.881464      0.268434      0.924760     Biso  1.000000 C
   C301       1.0     0.912200      0.221531      0.990580     Biso  1.000000 C
   C302       1.0     0.836945      0.288127      0.224728     Biso  1.000000 C
   C303       1.0     0.838691      0.282583      0.160340     Biso  1.000000 C
   C304       1.0     0.728457      0.107387      0.189967     Biso  1.000000 C
   C305       1.0     0.721874      0.128607      0.135774     Biso  1.000000 C
   C306       1.0     0.743365      0.158229      0.111759     Biso  1.000000 C
   C307       1.0     0.756337      0.119670      0.228100     Biso  1.000000 C
   C308       1.0     0.778628      0.149148      0.203313     Biso  1.000000 C
   C309       1.0     0.906065      0.297908      0.938294     Biso  1.000000 C
   C310       1.0     0.772127      0.169529      0.145949     Biso  1.000000 C
   C311       1.0     0.863057      0.107212      0.198460     Biso  1.000000 C
   C312       1.0     0.865286      0.135661      0.149850     Biso  1.000000 C
   C313       1.0     0.826709      0.067760      0.133613     Biso  1.000000 C
   C314       1.0     0.827135      0.099553      0.087801     Biso  1.000000 C
   C315       1.0     0.845896      0.134866      0.098311     Biso  1.000000 C
   C316       1.0     0.934746      0.290175      0.976633     Biso  1.000000 C
   C317       1.0     0.937327      0.250852      0.002646     Biso  1.000000 C
   C318       1.0     0.844897      0.071343      0.188255     Biso  1.000000 C
   C319       1.0     0.273615      0.251386      0.044376     Biso  1.000000 C
   C320       1.0     0.898046      0.093186      0.405032     Biso  1.000000 C
   C321       1.0     0.946025      0.047078      0.354771     Biso  1.000000 C
   C322       1.0     0.591258      0.328887      0.954851     Biso  1.000000 C
   C323       1.0     0.599660      0.368364      0.992573     Biso  1.000000 C
   C324       1.0     0.613348      0.282629      0.868331     Biso  1.000000 C
   C325       1.0     0.621683      0.303649      0.932219     Biso  1.000000 C
   C326       1.0     0.660452      0.311846      0.800709     Biso  1.000000 C
   C327       1.0     0.646080      0.272894      0.833944     Biso  1.000000 C
   C328       1.0     0.711968      0.355049      0.774724     Biso  1.000000 C
   C329       1.0     0.629494      0.439939      0.966090     Biso  1.000000 C
   C330       1.0     0.696213      0.311849      0.772787     Biso  1.000000 C
   C331       1.0     0.741532      0.362841      0.727008     Biso  1.000000 C
   C332       1.0     0.786046      0.297380      0.639020     Biso  1.000000 C
   C333       1.0     0.796730      0.333394      0.684437     Biso  1.000000 C
   C334       1.0     0.795863      0.339110      0.534615     Biso  1.000000 C
   C335       1.0     0.802251      0.298630      0.571263     Biso  1.000000 C
   C336       1.0     0.840405      0.386390      0.487665     Biso  1.000000 C
   C337       1.0     0.815907      0.350217      0.472306     Biso  1.000000 C
   C338       1.0     0.772545      0.337511      0.741628     Biso  1.000000 C
   C339       1.0     0.901713      0.413817      0.449530     Biso  1.000000 C
   C340       1.0     0.604966      0.404614      0.945716     Biso  1.000000 C
   C341       1.0     0.618955      0.463784      0.027899     Biso  1.000000 C
   C342       1.0     0.880392      0.707298      0.265004     Biso  1.000000 C
   C343       1.0     0.883954      0.706089      0.337800     Biso  1.000000 C
   C344       1.0     0.891796      0.739180      0.160583     Biso  1.000000 C
   C345       1.0     0.892650      0.745148      0.230659     Biso  1.000000 C
   C346       1.0     0.834245      0.706780      0.125656     Biso  1.000000 C
   C347       1.0     0.857495      0.743705      0.125871     Biso  1.000000 C
   C348       1.0     0.783393      0.729982      0.058998     Biso  1.000000 C
   C349       1.0     0.633622      0.505836      0.042596     Biso  1.000000 C
   C350       1.0     0.795648      0.717506      0.124766     Biso  1.000000 C
   C351       1.0     0.745227      0.735852      0.047666     Biso  1.000000 C
   C352       1.0     0.695151      0.637819      0.095417     Biso  1.000000 C
   C353       1.0     0.710550      0.679039      0.107397     Biso  1.000000 C
   C354       1.0     0.698461      0.560137      0.077838     Biso  1.000000 C
   C355       1.0     0.720533      0.600498      0.091119     Biso  1.000000 C
   C356       1.0     0.667570      0.511693      0.011590     Biso  1.000000 C
   C357       1.0     0.684802      0.552696      0.012523     Biso  1.000000 C
   C358       1.0     0.726358      0.695851      0.045977     Biso  1.000000 C
   C359       1.0     0.894544      0.151272      0.665200     Biso  1.000000 C
   C360       1.0     0.865762      0.397958      0.434347     Biso  1.000000 C
   C361       1.0     0.930595      0.382654      0.459877     Biso  1.000000 C
   C362       1.0     0.091505      0.658775      0.921003     Biso  1.000000 C
   C363       1.0     0.104291      0.647167      0.856925     Biso  1.000000 C
   C364       1.0     0.097447      0.738022      0.934574     Biso  1.000000 C
   C365       1.0     0.073468      0.700983      0.927951     Biso  1.000000 C
   C366       1.0     0.143051      0.785518      0.902764     Biso  1.000000 C
   C367       1.0     0.119553      0.752071      0.878368     Biso  1.000000 C
   C368       1.0     0.191345      0.797432      0.979462     Biso  1.000000 C
   C369       1.0     0.129265      0.580322      0.810420     Biso  1.000000 C
   C370       1.0     0.175132      0.765922      0.932637     Biso  1.000000 C
   C371       1.0     0.176795      0.791206      0.046203     Biso  1.000000 C
   C372       1.0     0.139724      0.818790      0.164526     Biso  1.000000 C
   C373       1.0     0.178612      0.817009      0.161217     Biso  1.000000 C
   C374       1.0     0.123503      0.766597      0.241258     Biso  1.000000 C
   C375       1.0     0.125189      0.812849      0.228091     Biso  1.000000 C
   C376       1.0     0.173346      0.745123      0.311225     Biso  1.000000 C
   C377       1.0     0.134371      0.751076      0.304300     Biso  1.000000 C
   C378       1.0     0.191178      0.821893      0.093121     Biso  1.000000 C
   C379       1.0     0.949462      0.368634      0.400689     Biso  1.000000 C
   C380       1.0     0.118440      0.602343      0.870565     Biso  1.000000 C
   C381       1.0     0.164122      0.596197      0.797769     Biso  1.000000 C
   C382       1.0     0.009514      0.350724      0.440956     Biso  1.000000 C
   C383       1.0     0.977943      0.333670      0.408891     Biso  1.000000 C
   C384       1.0     0.037637      0.366227      0.552505     Biso  1.000000 C
   C385       1.0     0.011210      0.342318      0.513097     Biso  1.000000 C
   C386       1.0     0.070783      0.428928      0.576288     Biso  1.000000 C
   C387       1.0     0.039172      0.413903      0.547266     Biso  1.000000 C
   C388       1.0     0.134614      0.439630      0.562406     Biso  1.000000 C
   C389       1.0     0.179857      0.587190      0.735827     Biso  1.000000 C
   C390       1.0     0.100123      0.429493      0.531554     Biso  1.000000 C
   C391       1.0     0.148267      0.409096      0.611809     Biso  1.000000 C
   C392       1.0     0.205953      0.484073      0.591267     Biso  1.000000 C
   C393       1.0     0.193144      0.462762      0.651634     Biso  1.000000 C
   C394       1.0     0.172787      0.555382      0.587133     Biso  1.000000 C
   C395       1.0     0.208260      0.532538      0.599232     Biso  1.000000 C
   C396       1.0     0.156206      0.599872      0.682672     Biso  1.000000 C
   C397       1.0     0.167982      0.598002      0.614112     Biso  1.000000 C
   C398       1.0     0.183494      0.417925      0.631064     Biso  1.000000 C
   C399       1.0     0.182875      0.802593      0.385010     Biso  1.000000 C
   C400       1.0     0.896626      0.144930      0.594550     Biso  1.000000 C
   C401       1.0     0.875184      0.114540      0.690614     Biso  1.000000 C
   C402       1.0     0.538096      0.298931      0.206485     Biso  1.000000 C
   C403       1.0     0.523636      0.257511      0.179031     Biso  1.000000 C
   C404       1.0     0.565099      0.336930      0.302633     Biso  1.000000 C
   C405       1.0     0.561855      0.295956      0.265571     Biso  1.000000 C
   C406       1.0     0.534401      0.400392      0.355713     Biso  1.000000 C
   C407       1.0     0.531540      0.361066      0.313083     Biso  1.000000 C
   C408       1.0     0.583692      0.446033      0.378508     Biso  1.000000 C
   C409       1.0     0.486595      0.193819      0.203485     Biso  1.000000 C
   C410       1.0     0.556424      0.435485      0.329951     Biso  1.000000 C
   C411       1.0     0.618336      0.425716      0.368267     Biso  1.000000 C
   C412       1.0     0.644580      0.408703      0.545088     Biso  1.000000 C
   C413       1.0     0.629338      0.400426      0.478464     Biso  1.000000 C
   C414       1.0     0.655680      0.476051      0.598298     Biso  1.000000 C
   C415       1.0     0.627430      0.446583      0.578183     Biso  1.000000 C
   C416       1.0     0.661292      0.554961      0.610819     Biso  1.000000 C
   C417       1.0     0.639798      0.517057      0.627785     Biso  1.000000 C
   C418       1.0     0.639462      0.430371      0.427483     Biso  1.000000 C
   C419       1.0     0.675599      0.613413      0.530992     Biso  1.000000 C
   C420       1.0     0.500769      0.235017      0.224881     Biso  1.000000 C
   C421       1.0     0.514099      0.161446      0.199816     Biso  1.000000 C
   C422       1.0     0.310383      0.222096      0.820392     Biso  1.000000 C
   C423       1.0     0.286128      0.195823      0.862210     Biso  1.000000 C
   C424       1.0     0.333480      0.245409      0.712680     Biso  1.000000 C
   C425       1.0     0.308732      0.216337      0.749031     Biso  1.000000 C
   C426       1.0     0.383370      0.275053      0.773865     Biso  1.000000 C
   C427       1.0     0.372420      0.243260      0.727495     Biso  1.000000 C
   C428       1.0     0.427829      0.241041      0.834093     Biso  1.000000 C
   C429       1.0     0.508828      0.122587      0.157052     Biso  1.000000 C
   C430       1.0     0.421200      0.278012      0.788415     Biso  1.000000 C
   C431       1.0     0.455844      0.211756      0.814424     Biso  1.000000 C
   C432       1.0     0.445047      0.112548      0.922754     Biso  1.000000 C
   C433       1.0     0.432281      0.148261      0.883527     Biso  1.000000 C
   C434       1.0     0.475259      0.090005      0.020184     Biso  1.000000 C
   C435       1.0     0.453079      0.123323      0.991203     Biso  1.000000 C
   C436       1.0     0.516820      0.133875      0.091317     Biso  1.000000 C
   C437       1.0     0.513019      0.100615      0.035529     Biso  1.000000 C
   C438       1.0     0.461443      0.176627      0.862623     Biso  1.000000 C
   C439       1.0     0.861614      0.115817      0.758366     Biso  1.000000 C
   C440       1.0     0.656266      0.571717      0.542101     Biso  1.000000 C
   C441       1.0     0.713198      0.616219      0.541804     Biso  1.000000 C
   C442       1.0     0.887642      0.385273      0.081911     Biso  1.000000 C
   C443       1.0     0.919387      0.415214      0.078876     Biso  1.000000 C
   C444       1.0     0.827255      0.370304      0.068288     Biso  1.000000 C
   C445       1.0     0.853319      0.404712      0.069229     Biso  1.000000 C
   C446       1.0     0.785505      0.324218      0.132261     Biso  1.000000 C
   C447       1.0     0.806500      0.364947      0.129025     Biso  1.000000 C
   C448       1.0     0.779054      0.248126      0.127491     Biso  1.000000 C
   C449       1.0     0.949477      0.468447      0.151212     Biso  1.000000 C
   C450       1.0     0.806423      0.284327      0.122463     Biso  1.000000 C
   C451       1.0     0.794273      0.205214      0.122084     Biso  1.000000 C
   C452       1.0     0.854694      0.160009      0.988667     Biso  1.000000 C
   C453       1.0     0.842832      0.172525      0.053788     Biso  1.000000 C
   C454       1.0     0.862165      0.179371      0.872270     Biso  1.000000 C
   C455       1.0     0.858735      0.195811      0.940514     Biso  1.000000 C
   C456       1.0     0.835710      0.147524      0.775560     Biso  1.000000 C
   C457       1.0     0.830728      0.155868      0.847306     Biso  1.000000 C
   C458       1.0     0.807154      0.193300      0.057856     Biso  1.000000 C
   C459       1.0     0.725937      0.662575      0.538585     Biso  1.000000 C
   C460       1.0     0.920465      0.440302      0.136881     Biso  1.000000 C
   C461       1.0     0.947114      0.510137      0.116826     Biso  1.000000 C
   C462       1.0     0.767846      0.664706      0.628361     Biso  1.000000 C
   C463       1.0     0.762525      0.671190      0.559076     Biso  1.000000 C
   C464       1.0     0.815649      0.610018      0.647482     Biso  1.000000 C
   C465       1.0     0.804231      0.657316      0.652238     Biso  1.000000 C
   C466       1.0     0.880067      0.619611      0.640102     Biso  1.000000 C
   C467       1.0     0.851608      0.599380      0.673212     Biso  1.000000 C
   C468       1.0     0.914264      0.672037      0.705945     Biso  1.000000 C
   C469       1.0     0.978263      0.537978      0.121434     Biso  1.000000 C
   C470       1.0     0.913074      0.629472      0.678400     Biso  1.000000 C
   C471       1.0     0.927459      0.674091      0.774324     Biso  1.000000 C
   C472       1.0     0.939824      0.590094      0.861690     Biso  1.000000 C
   C473       1.0     0.919978      0.629141      0.879464     Biso  1.000000 C
   C474       1.0     0.983093      0.573559      0.944810     Biso  1.000000 C
   C475       1.0     0.949011      0.559735      0.914394     Biso  1.000000 C
   C476       1.0     0.976620      0.567118      0.064424     Biso  1.000000 C
   C477       1.0     0.993740      0.548714      0.005890     Biso  1.000000 C
   C478       1.0     0.904750      0.649172      0.819324     Biso  1.000000 C
   C479       1.0     0.185163      0.755119      0.376320     Biso  1.000000 C
   C480       1.0     0.177900      0.805233      0.500841     Biso  1.000000 C
   C481       1.0     0.198104      0.818618      0.445554     Biso  1.000000 C
   C482       1.0     0.523836      0.719053      0.198176     Biso  1.000000 C
   C483       1.0     0.568543      0.704333      0.363892     Biso  1.000000 C
   C484       1.0     0.554723      0.687921      0.298276     Biso  1.000000 C
   C485       1.0     0.566604      0.757517      0.450928     Biso  1.000000 C
   C486       1.0     0.548678      0.739026      0.397123     Biso  1.000000 C
   C487       1.0     0.616710      0.793653      0.500841     Biso  1.000000 C
   C488       1.0     0.598300      0.784704      0.439447     Biso  1.000000 C
   C489       1.0     0.553355      0.720782      0.246533     Biso  1.000000 C
   C490       1.0     0.655981      0.774168      0.586506     Biso  1.000000 C
   C491       1.0     0.651111      0.800023      0.702286     Biso  1.000000 C
   C492       1.0     0.636563      0.770257      0.649800     Biso  1.000000 C
   C493       1.0     0.625829      0.849142      0.786952     Biso  1.000000 C
   C494       1.0     0.623970      0.806449      0.754237     Biso  1.000000 C
   C495       1.0     0.603297      0.923561      0.790282     Biso  1.000000 C
   C496       1.0     0.617637      0.888745      0.748251     Biso  1.000000 C
   C497       1.0     0.608027      0.976889      0.878809     Biso  1.000000 C
   C498       1.0     0.637470      0.758091      0.527713     Biso  1.000000 C
   C499       1.0     0.623755      0.938100      0.846438     Biso  1.000000 C
   C500       1.0     0.459384      0.713840      0.184048     Biso  1.000000 C
   C501       1.0     0.446006      0.651287      0.115339     Biso  1.000000 C
   C502       1.0     0.349611      0.817083      0.461726     Biso  1.000000 C
   C503       1.0     0.374377      0.724355      0.567938     Biso  1.000000 C
   C504       1.0     0.359772      0.765941      0.553369     Biso  1.000000 C
   C505       1.0     0.405403      0.742007      0.668832     Biso  1.000000 C
   C506       1.0     0.381677      0.711068      0.636303     Biso  1.000000 C
   C507       1.0     0.381990      0.741396      0.782893     Biso  1.000000 C
   C508       1.0     0.412625      0.737108      0.739705     Biso  1.000000 C
   C509       1.0     0.489398      0.725236      0.224412     Biso  1.000000 C
   C510       1.0     0.375474      0.677627      0.851421     Biso  1.000000 C
   C511       1.0     0.434317      0.649500      0.875953     Biso  1.000000 C
   C512       1.0     0.396535      0.647665      0.895129     Biso  1.000000 C
   C513       1.0     0.471261      0.629742      0.975370     Biso  1.000000 C
   C514       1.0     0.460872      0.619627      0.909007     Biso  1.000000 C
   C515       1.0     0.464810      0.613686      0.089045     Biso  1.000000 C
   C516       1.0     0.454835      0.600633      0.022400     Biso  1.000000 C
   C517       1.0     0.455170      0.665912      0.180032     Biso  1.000000 C
   C518       1.0     0.386138      0.723723      0.848764     Biso  1.000000 C
   C519       1.0     0.361550      0.773109      0.482310     Biso  1.000000 C
   C520       1.0     0.592245      0.983290      0.996516     Biso  1.000000 C
   C521       1.0     0.541956      0.949180      0.041894     Biso  1.000000 C
   C522       1.0     0.081715      0.944412      0.735140     Biso  1.000000 C
   C523       1.0     0.040543      0.888422      0.876984     Biso  1.000000 C
   C524       1.0     0.043329      0.923377      0.827154     Biso  1.000000 C
   C525       1.0     0.036570      0.935653      0.971589     Biso  1.000000 C
   C526       1.0     0.019780      0.901261      0.933171     Biso  1.000000 C
   C527       1.0     0.996714      0.997074      0.961112     Biso  1.000000 C
   C528       1.0     0.012726      0.965942      0.006799     Biso  1.000000 C
   C529       1.0     0.069132      0.908807      0.777130     Biso  1.000000 C
   C530       1.0     0.930823      0.995385      0.978124     Biso  1.000000 C
   C531       1.0     0.923128      0.964950      0.091700     Biso  1.000000 C
   C532       1.0     0.908883      0.991950      0.035362     Biso  1.000000 C
   C533       1.0     0.939859      0.982010      0.202904     Biso  1.000000 C
   C534       1.0     0.910141      0.970887      0.160212     Biso  1.000000 C
   C535       1.0     0.959224      0.027860      0.292624     Biso  1.000000 C
   C536       1.0     0.932279      0.997390      0.265227     Biso  1.000000 C
   C537       1.0     0.913029      0.072273      0.343787     Biso  1.000000 C
   C538       1.0     0.963686      0.020379      0.984863     Biso  1.000000 C
   C539       1.0     0.620475      0.984466      0.947708     Biso  1.000000 C
   C540       1.0     0.117208      0.988954      0.809204     Biso  1.000000 C
   C541       1.0     0.169523      0.955531      0.865001     Biso  1.000000 C
   C542       1.0     0.574135      0.940461      0.009449     Biso  1.000000 C
   C543       1.0     0.502721      0.895231      0.983488     Biso  1.000000 C
   C544       1.0     0.515489      0.914775      0.046190     Biso  1.000000 C
   C545       1.0     0.447016      0.887501      0.921054     Biso  1.000000 C
   C546       1.0     0.475467      0.917071      0.944099     Biso  1.000000 C
   C547       1.0     0.391519      0.905411      0.968733     Biso  1.000000 C
   C548       1.0     0.413597      0.908558      0.910414     Biso  1.000000 C
   C549       1.0     0.116384      0.962126      0.750973     Biso  1.000000 C
   C550       1.0     0.359118      0.975127      0.962733     Biso  1.000000 C
   C551       1.0     0.316841      0.992144      0.871554     Biso  1.000000 C
   C552       1.0     0.324577      0.992868      0.943598     Biso  1.000000 C
   C553       1.0     0.265966      0.958463      0.818822     Biso  1.000000 C
   C554       1.0     0.277773      0.994505      0.862168     Biso  1.000000 C
   C555       1.0     0.207874      0.959743      0.873398     Biso  1.000000 C
   C556       1.0     0.227197      0.957462      0.810355     Biso  1.000000 C
   C557       1.0     0.154580      0.996598      0.832843     Biso  1.000000 C
   C558       1.0     0.358163      0.928221      0.964014     Biso  1.000000 C
   C559       1.0     0.965227      0.861953      0.628593     Biso  1.000000 C
   C560       1.0     0.990902      0.896490      0.618724     Biso  1.000000 C
   C561       1.0     0.902948      0.846161      0.594764     Biso  1.000000 C
   C562       1.0     0.262111      0.372708      0.114880     Biso  1.000000 C
   C563       1.0     0.295790      0.385795      0.145814     Biso  1.000000 C
   C564       1.0     0.219315      0.384444      0.031124     Biso  1.000000 C
   C565       1.0     0.256261      0.395784      0.055386     Biso  1.000000 C
   C566       1.0     0.157892      0.399281      0.016496     Biso  1.000000 C
   C567       1.0     0.189958      0.410812      0.050646     Biso  1.000000 C
   C568       1.0     0.115783      0.351141      0.970962     Biso  1.000000 C
   C569       1.0     0.279399      0.455206      0.198757     Biso  1.000000 C
   C570       1.0     0.141876      0.355986      0.025557     Biso  1.000000 C
   C571       1.0     0.101626      0.306486      0.965301     Biso  1.000000 C
   C572       1.0     0.155444      0.224242      0.870170     Biso  1.000000 C
   C573       1.0     0.139068      0.269260      0.879352     Biso  1.000000 C
   C574       1.0     0.141257      0.147944      0.887712     Biso  1.000000 C
   C575       1.0     0.129741      0.191350      0.862544     Biso  1.000000 C
   C576       1.0     0.158743      0.099540      0.981236     Biso  1.000000 C
   C577       1.0     0.149036      0.143640      0.957744     Biso  1.000000 C
   C578       1.0     0.125906      0.271418      0.948999     Biso  1.000000 C
   C579       1.0     0.190063      0.120373      0.083950     Biso  1.000000 C
   C580       1.0     0.291093      0.411856      0.205240     Biso  1.000000 C
   C581       1.0     0.275193      0.475990      0.262733     Biso  1.000000 C
   C582       1.0     0.469585      0.359498      0.523398     Biso  1.000000 C
   C583       1.0     0.477579      0.348759      0.591787     Biso  1.000000 C
   C584       1.0     0.433421      0.390409      0.440924     Biso  1.000000 C
   C585       1.0     0.443802      0.394038      0.509911     Biso  1.000000 C
   C586       1.0     0.378989      0.431390      0.431992     Biso  1.000000 C
   C587       1.0     0.415088      0.424274      0.407261     Biso  1.000000 C
   C588       1.0     0.337631      0.478808      0.487460     Biso  1.000000 C
   C589       1.0     0.250730      0.513032      0.261572     Biso  1.000000 C
   C590       1.0     0.373294      0.472272      0.465590     Biso  1.000000 C
   C591       1.0     0.323074      0.442899      0.524936     Biso  1.000000 C
   C592       1.0     0.228236      0.432053      0.452377     Biso  1.000000 C
   C593       1.0     0.266630      0.428903      0.457188     Biso  1.000000 C
   C594       1.0     0.187933      0.457850      0.371388     Biso  1.000000 C
   C595       1.0     0.213671      0.421465      0.389947     Biso  1.000000 C
   C596       1.0     0.227768      0.512163      0.321285     Biso  1.000000 C
   C597       1.0     0.198225      0.479121      0.310245     Biso  1.000000 C
   C598       1.0     0.283147      0.443053      0.521773     Biso  1.000000 C
   C599       1.0     0.162471      0.092440      0.051134     Biso  1.000000 C
   C600       1.0     0.160993      0.143419      0.185327     Biso  1.000000 C
   C601       1.0     0.192816      0.120487      0.155855     Biso  1.000000 C
   C602       1.0     0.565657      0.027716      0.513603     Biso  1.000000 C
   C603       1.0     0.608478      0.110251      0.532320     Biso  1.000000 C
   C604       1.0     0.585669      0.102442      0.478747     Biso  1.000000 C
   C605       1.0     0.663469      0.088326      0.588387     Biso  1.000000 C
   C606       1.0     0.643432      0.086254      0.526027     Biso  1.000000 C
   C607       1.0     0.692310      0.020508      0.593203     Biso  1.000000 C
   C608       1.0     0.698305      0.067011      0.592344     Biso  1.000000 C
   C609       1.0     0.555188      0.074315      0.494301     Biso  1.000000 C
   C610       1.0     0.747136      0.001858      0.528814     Biso  1.000000 C
   C611       1.0     0.807322      0.991158      0.553638     Biso  1.000000 C
   C612       1.0     0.777233      0.974620      0.513785     Biso  1.000000 C
   C613       1.0     0.825447      0.921087      0.610587     Biso  1.000000 C
   C614       1.0     0.835613      0.958043      0.565648     Biso  1.000000 C
   C615       1.0     0.871113      0.871261      0.577965     Biso  1.000000 C
   C616       1.0     0.853389      0.893168      0.633484     Biso  1.000000 C
   C617       1.0     0.932670      0.874865      0.592957     Biso  1.000000 C
   C618       1.0     0.726879      0.996825      0.590157     Biso  1.000000 C
   C619       1.0     0.511499      0.022003      0.580752     Biso  1.000000 C
   C620       1.0     0.533108      0.003248      0.528698     Biso  1.000000 C
   C621       1.0     0.456007      0.979456      0.556397     Biso  1.000000 C
   C622       1.0     0.141348      0.093140      0.265278     Biso  1.000000 C
   C623       1.0     0.156684      0.136607      0.254173     Biso  1.000000 C
   C624       1.0     0.169413      0.065968      0.371774     Biso  1.000000 C
   C625       1.0     0.135721      0.078023      0.336704     Biso  1.000000 C
   C626       1.0     0.210116      0.076924      0.464280     Biso  1.000000 C
   C627       1.0     0.176520      0.085001      0.434696     Biso  1.000000 C
   C628       1.0     0.274028      0.077504      0.460774     Biso  1.000000 C
   C629       1.0     0.239955      0.094125      0.428114     Biso  1.000000 C
   C630       1.0     0.334089      0.052893      0.441360     Biso  1.000000 C
   C631       1.0     0.308850      0.088249      0.427831     Biso  1.000000 C
   C632       1.0     0.360253      0.982949      0.421714     Biso  1.000000 C
   C633       1.0     0.329507      0.009990      0.411269     Biso  1.000000 C
   C634       1.0     0.399017      0.939347      0.483415     Biso  1.000000 C
   C635       1.0     0.369685      0.970451      0.486838     Biso  1.000000 C
   C636       1.0     0.427250      0.954546      0.586497     Biso  1.000000 C
   C637       1.0     0.412225      0.921682      0.545232     Biso  1.000000 C
   C638       1.0     0.484969      0.989043      0.601795     Biso  1.000000 C
   C639       1.0     0.686471      0.250343      0.596366     Biso  1.000000 C
   C640       1.0     0.703954      0.232457      0.645076     Biso  1.000000 C
   C641       1.0     0.884789      0.063318      0.452544     Biso  1.000000 C
   C642       1.0     0.674133      0.292214      0.601600     Biso  1.000000 C
   C643       1.0     0.440493      0.766862      0.761367     Biso  1.000000 C
   C644       1.0     0.328588      0.786534      0.993330     Biso  1.000000 C
   C645       1.0     0.364208      0.784864      0.995443     Biso  1.000000 C
   C646       1.0     0.381554      0.765588      0.947727     Biso  1.000000 C
   C647       1.0     0.311264      0.768992      0.941963     Biso  1.000000 C
   C648       1.0     0.330241      0.749400      0.894836     Biso  1.000000 C
   C649       1.0     0.364910      0.746112      0.897846     Biso  1.000000 C
   C650       1.0     0.471782      0.749670      0.783766     Biso  1.000000 C
   C651       1.0     0.347384      0.529920      0.865410     Biso  1.000000 C
   C652       1.0     0.391793      0.576847      0.841807     Biso  1.000000 C
   C653       1.0     0.336015      0.557325      0.911793     Biso  1.000000 C
   C654       1.0     0.352574      0.594309      0.923288     Biso  1.000000 C
   C655       1.0     0.381238      0.604400      0.888799     Biso  1.000000 C
   C656       1.0     0.546766      0.594944      0.789786     Biso  1.000000 C
   C657       1.0     0.540506      0.634795      0.812306     Biso  1.000000 C
   C658       1.0     0.512591      0.643394      0.849401     Biso  1.000000 C
   C659       1.0     0.375354      0.541269      0.828970     Biso  1.000000 C
   C660       1.0     0.523035      0.562962      0.800101     Biso  1.000000 C
   C661       1.0     0.496370      0.775123      0.810643     Biso  1.000000 C
   C662       1.0     0.466937      0.834244      0.777102     Biso  1.000000 C
   C663       1.0     0.408119      0.847227      0.326928     Biso  1.000000 C
   C664       1.0     0.394939      0.830449      0.383816     Biso  1.000000 C
   C665       1.0     0.361202      0.830962      0.396653     Biso  1.000000 C
   C666       1.0     0.263940      0.799805      0.641161     Biso  1.000000 C
   C667       1.0     0.264882      0.772160      0.590301     Biso  1.000000 C
   C668       1.0     0.296103      0.759957      0.564185     Biso  1.000000 C
   C669       1.0     0.293936      0.814734      0.663027     Biso  1.000000 C
   C670       1.0     0.439140      0.810136      0.757145     Biso  1.000000 C
   C671       1.0     0.324727      0.803207      0.638365     Biso  1.000000 C
   C672       1.0     0.419447      0.587577      0.644756     Biso  1.000000 C
   C673       1.0     0.389816      0.597287      0.678330     Biso  1.000000 C
   C674       1.0     0.377957      0.637641      0.675910     Biso  1.000000 C
   C675       1.0     0.435485      0.617076      0.607410     Biso  1.000000 C
   C676       1.0     0.423763      0.657584      0.604865     Biso  1.000000 C
   C677       1.0     0.395317      0.668052      0.641983     Biso  1.000000 C
   C678       1.0     0.495258      0.816856      0.806589     Biso  1.000000 C
   C679       1.0     0.326005      0.775635      0.585837     Biso  1.000000 C
   C680       1.0     0.338127      0.848151      0.354445     Biso  1.000000 C
   C681       1.0     0.495789      0.572583      0.838746     Biso  1.000000 C
   C682       1.0     0.464840      0.469574      0.992610     Biso  1.000000 C
   C683       1.0     0.532792      0.754358      0.026637     Biso  1.000000 C
   C684       1.0     0.523872      0.730633      0.079812     Biso  1.000000 C
   C685       1.0     0.530678      0.744592      0.139254     Biso  1.000000 C
   C686       1.0     0.614896      0.584163      0.236915     Biso  1.000000 C
   C687       1.0     0.580969      0.577397      0.248164     Biso  1.000000 C
   C688       1.0     0.559267      0.611283      0.264916     Biso  1.000000 C
   C689       1.0     0.628131      0.622138      0.240863     Biso  1.000000 C
   C690       1.0     0.545521      0.783160      0.146509     Biso  1.000000 C
   C691       1.0     0.609322      0.655502      0.263643     Biso  1.000000 C
   C692       1.0     0.449243      0.692338      0.432355     Biso  1.000000 C
   C693       1.0     0.477629      0.671991      0.464150     Biso  1.000000 C
   C694       1.0     0.509444      0.687648      0.447064     Biso  1.000000 C
   C695       1.0     0.453745      0.730532      0.401511     Biso  1.000000 C
   C696       1.0     0.485904      0.747140      0.391842     Biso  1.000000 C
   C697       1.0     0.513721      0.724987      0.413011     Biso  1.000000 C
   C698       1.0     0.569255      0.885226      0.319641     Biso  1.000000 C
   C699       1.0     0.574821      0.650044      0.276573     Biso  1.000000 C
   C700       1.0     0.490551      0.611648      0.867509     Biso  1.000000 C
   C701       1.0     0.552002      0.807824      0.094829     Biso  1.000000 C
   C702       1.0     0.426767      0.733992      0.208129     Biso  1.000000 C
   C703       1.0     0.433784      0.489691      0.000334     Biso  1.000000 C
   C704       1.0     0.430129      0.531639      0.014243     Biso  1.000000 C
   C705       1.0     0.494767      0.492353      0.997793     Biso  1.000000 C
   C706       1.0     0.492905      0.536449      0.003655     Biso  1.000000 C
   C707       1.0     0.460251      0.555698      0.012656     Biso  1.000000 C
   C708       1.0     0.340211      0.646311      0.103373     Biso  1.000000 C
   C709       1.0     0.357031      0.674441      0.066221     Biso  1.000000 C
   C710       1.0     0.547969      0.794193      0.032523     Biso  1.000000 C
   C711       1.0     0.392381      0.671340      0.066919     Biso  1.000000 C
   C712       1.0     0.391211      0.620981      0.149436     Biso  1.000000 C
   C713       1.0     0.410268      0.647419      0.113315     Biso  1.000000 C
   C714       1.0     0.363772      0.761376      0.250161     Biso  1.000000 C
   C715       1.0     0.383490      0.737421      0.290451     Biso  1.000000 C
   C716       1.0     0.415784      0.722049      0.267967     Biso  1.000000 C
   C717       1.0     0.376103      0.772476      0.190724     Biso  1.000000 C
   C718       1.0     0.407961      0.758315      0.166537     Biso  1.000000 C
   C719       1.0     0.356998      0.620253      0.145755     Biso  1.000000 C
   C720       1.0     0.599803      0.824033      0.339333     Biso  1.000000 C
   C721       1.0     0.350402      0.859638      0.295991     Biso  1.000000 C
   C722       1.0     0.980701      0.819490      0.609273     Biso  1.000000 C
   C723       1.0     0.591032      0.984128      0.356991     Biso  1.000000 C
   C724       1.0     0.572692      0.005364      0.402315     Biso  1.000000 C
   C725       1.0     0.583424      0.003912      0.463983     Biso  1.000000 C
   C726       1.0     0.546445      0.211284      0.393128     Biso  1.000000 C
   C727       1.0     0.546962      0.208401      0.459747     Biso  1.000000 C
   C728       1.0     0.557263      0.171641      0.487256     Biso  1.000000 C
   C729       1.0     0.558989      0.177404      0.358811     Biso  1.000000 C
   C730       1.0     0.611700      0.979621      0.481929     Biso  1.000000 C
   C731       1.0     0.574433      0.143585      0.387128     Biso  1.000000 C
   C732       1.0     0.706029      0.132324      0.376581     Biso  1.000000 C
   C733       1.0     0.686894      0.159091      0.411790     Biso  1.000000 C
   C734       1.0     0.668103      0.144699      0.462659     Biso  1.000000 C
   C735       1.0     0.701770      0.088879      0.384142     Biso  1.000000 C
   C736       1.0     0.681005      0.075840      0.432596     Biso  1.000000 C
   C737       1.0     0.663008      0.102914      0.470587     Biso  1.000000 C
   C738       1.0     0.747837      0.129531      0.745576     Biso  1.000000 C
   C739       1.0     0.573817      0.141012      0.451610     Biso  1.000000 C
   C740       1.0     0.756405      0.137430      0.684317     Biso  1.000000 C
   C741       1.0     0.626212      0.954604      0.437733     Biso  1.000000 C
   C742       1.0     0.531467      0.040060      0.635383     Biso  1.000000 C
   C743       1.0     0.476316      0.844209      0.483183     Biso  1.000000 C
   C744       1.0     0.457119      0.878562      0.492843     Biso  1.000000 C
   C745       1.0     0.454832      0.816923      0.579999     Biso  1.000000 C
   C746       1.0     0.434230      0.852636      0.590932     Biso  1.000000 C
   C747       1.0     0.433779      0.882721      0.541818     Biso  1.000000 C
   C748       1.0     0.419735      0.099120      0.485240     Biso  1.000000 C
   C749       1.0     0.414159      0.087515      0.546602     Biso  1.000000 C
   C750       1.0     0.619060      0.959467      0.374797     Biso  1.000000 C
   C751       1.0     0.425367      0.047542      0.567994     Biso  1.000000 C
   C752       1.0     0.450586      0.034534      0.469305     Biso  1.000000 C
   C753       1.0     0.443344      0.020667      0.528112     Biso  1.000000 C
   C754       1.0     0.572439      0.077879      0.724253     Biso  1.000000 C
   C755       1.0     0.550288      0.102220      0.693396     Biso  1.000000 C
   C756       1.0     0.529050      0.082800      0.650580     Biso  1.000000 C
   C757       1.0     0.576725      0.036014      0.712304     Biso  1.000000 C
   C758       1.0     0.557413      0.017732      0.666055     Biso  1.000000 C
   C759       1.0     0.437682      0.071978      0.447268     Biso  1.000000 C
   C760       1.0     0.385650      0.861514      0.282379     Biso  1.000000 C
   C761       1.0     0.740314      0.117156      0.635249     Biso  1.000000 C
   C762       1.0     0.704899      0.081112      0.708537     Biso  1.000000 C
   C763       1.0     0.802893      0.816423      0.726775     Biso  1.000000 C
   C764       1.0     0.818227      0.833467      0.673895     Biso  1.000000 C
   C765       1.0     0.835537      0.857582      0.798861     Biso  1.000000 C
   C766       1.0     0.850260      0.876229      0.748367     Biso  1.000000 C
   C767       1.0     0.841139      0.865530      0.687656     Biso  1.000000 C
   C768       1.0     0.895283      0.732143      0.491714     Biso  1.000000 C
   C769       1.0     0.909662      0.765274      0.460058     Biso  1.000000 C
   C770       1.0     0.812465      0.825455      0.788313     Biso  1.000000 C
   C771       1.0     0.914710      0.803280      0.492824     Biso  1.000000 C
   C772       1.0     0.887554      0.772535      0.584695     Biso  1.000000 C
   C773       1.0     0.903412      0.807195      0.556671     Biso  1.000000 C
   C774       1.0     0.012425      0.744285      0.583706     Biso  1.000000 C
   C775       1.0     0.993074      0.749071      0.635537     Biso  1.000000 C
   C776       1.0     0.977096      0.786515      0.648290     Biso  1.000000 C
   C777       1.0     0.017440      0.777818      0.541683     Biso  1.000000 C
   C778       1.0     0.001663      0.814694      0.555184     Biso  1.000000 C
   C779       1.0     0.885222      0.734581      0.553870     Biso  1.000000 C
   C780       1.0     0.721696      0.101640      0.757837     Biso  1.000000 C
   C781       1.0     0.866977      0.980048      0.585916     Biso  1.000000 C
   C782       1.0     0.927557      0.991392      0.567181     Biso  1.000000 C
   C783       1.0     0.716788      0.086733      0.644412     Biso  1.000000 C
   C784       1.0     0.719020      0.866300      0.630976     Biso  1.000000 C
   C785       1.0     0.735862      0.892843      0.671628     Biso  1.000000 C
   C786       1.0     0.740434      0.934294      0.656613     Biso  1.000000 C
   C787       1.0     0.705212      0.881760      0.573460     Biso  1.000000 C
   C788       1.0     0.709669      0.924543      0.559508     Biso  1.000000 C
   C789       1.0     0.722908      0.952286      0.605028     Biso  1.000000 C
   C790       1.0     0.895300      0.976416      0.547986     Biso  1.000000 C
   C791       1.0     0.804892      0.966979      0.320741     Biso  1.000000 C
   C792       1.0     0.782208      0.933756      0.413568     Biso  1.000000 C
   C793       1.0     0.802933      0.006951      0.345844     Biso  1.000000 C
   C794       1.0     0.794200      0.008031      0.411887     Biso  1.000000 C
   C795       1.0     0.783295      0.971639      0.444124     Biso  1.000000 C
   C796       1.0     0.929107      0.012237      0.624961     Biso  1.000000 C
   C797       1.0     0.900894      0.016333      0.660927     Biso  1.000000 C
   C798       1.0     0.869137      0.999972      0.643748     Biso  1.000000 C
   C799       1.0     0.797366      0.931386      0.355727     Biso  1.000000 C
   C800       1.0     0.476474      0.812475      0.527848     Biso  1.000000 C
   C801       1.0     0.558545      0.886894      0.379177     Biso  1.000000 C
   C802       1.0     0.587149      0.821313      0.400062     Biso  1.000000 C
   C803       1.0     0.063838      0.946435      0.620020     Biso  1.000000 C
   C804       1.0     0.081735      0.928814      0.669139     Biso  1.000000 C
   C805       1.0     0.943865      0.963053      0.767061     Biso  1.000000 C
   C806       1.0     0.970906      0.992236      0.776582     Biso  1.000000 C
   C807       1.0     0.003056      0.976846      0.794681     Biso  1.000000 C
   C808       1.0     0.952029      0.921501      0.768129     Biso  1.000000 C
   C809       1.0     0.984038      0.905381      0.783051     Biso  1.000000 C
   C810       1.0     0.067937      0.933109      0.557456     Biso  1.000000 C
   C811       1.0     0.009354      0.933692      0.799664     Biso  1.000000 C
   C812       1.0     0.013387      0.807882      0.043995     Biso  1.000000 C
   C813       1.0     0.027691      0.835549      0.000769     Biso  1.000000 C
   C814       1.0     0.960091      0.841707      0.040103     Biso  1.000000 C
   C815       1.0     0.972061      0.867992      0.995694     Biso  1.000000 C
   C816       1.0     0.005872      0.865855      0.971557     Biso  1.000000 C
   C817       1.0     0.050133      0.033816      0.171045     Biso  1.000000 C
   C818       1.0     0.060248      0.045482      0.111056     Biso  1.000000 C
   C819       1.0     0.981182      0.811176      0.064370     Biso  1.000000 C
   C820       1.0     0.050022      0.024268      0.056654     Biso  1.000000 C
   C821       1.0     0.102104      0.894335      0.654137     Biso  1.000000 C
   C822       1.0     0.088141      0.899100      0.543926     Biso  1.000000 C
   C823       1.0     0.203037      0.935739      0.705829     Biso  1.000000 C
   C824       1.0     0.198097      0.854797      0.742822     Biso  1.000000 C
   C825       1.0     0.217306      0.883090      0.779800     Biso  1.000000 C
   C826       1.0     0.216009      0.923880      0.764757     Biso  1.000000 C
   C827       1.0     0.115652      0.921611      0.033284     Biso  1.000000 C
   C828       1.0     0.129814      0.891286      0.995183     Biso  1.000000 C
   C829       1.0     0.148442      0.902667      0.940811     Biso  1.000000 C
   C830       1.0     0.105331      0.880321      0.590714     Biso  1.000000 C
   C831       1.0     0.120106      0.963280      0.022557     Biso  1.000000 C
   C832       1.0     0.150248      0.944320      0.925703     Biso  1.000000 C
   C833       1.0     0.054316      0.096492      0.799933     Biso  1.000000 C
   C834       1.0     0.071637      0.082505      0.746955     Biso  1.000000 C
   C835       1.0     0.093642      0.050093      0.750963     Biso  1.000000 C
   C836       1.0     0.056315      0.075739      0.857445     Biso  1.000000 C
   C837       1.0     0.075324      0.039713      0.858271     Biso  1.000000 C
   C838       1.0     0.095413      0.027427      0.806816     Biso  1.000000 C
   C839       1.0     0.135343      0.974504      0.965324     Biso  1.000000 C
   C840       1.0     0.186653      0.906790      0.669097     Biso  1.000000 C
   C841       1.0     0.029771      0.999889      0.174568     Biso  1.000000 C
   C842       1.0     0.027561      0.990513      0.061596     Biso  1.000000 C
   C843       1.0     0.892798      0.958276      0.331349     Biso  1.000000 C
   C844       1.0     0.946809      0.910587      0.379432     Biso  1.000000 C
   C845       1.0     0.953242      0.941032      0.333365     Biso  1.000000 C
   C846       1.0     0.926076      0.964256      0.310041     Biso  1.000000 C
   C847       1.0     0.018039      0.128846      0.441602     Biso  1.000000 C
   C848       1.0     0.005250      0.139530      0.382809     Biso  1.000000 C
   C849       1.0     0.982302      0.113972      0.352537     Biso  1.000000 C
   C850       1.0     0.887357      0.930121      0.377175     Biso  1.000000 C
   C851       1.0     0.006896      0.092928      0.474145     Biso  1.000000 C
   C852       1.0     0.971397      0.078020      0.384982     Biso  1.000000 C
   C853       1.0     0.844298      0.202025      0.350721     Biso  1.000000 C
   C854       1.0     0.877381      0.204978      0.376641     Biso  1.000000 C
   C855       1.0     0.896778      0.169701      0.388647     Biso  1.000000 C
   C856       1.0     0.827959      0.164666      0.342384     Biso  1.000000 C
   C857       1.0     0.845475      0.130381      0.362833     Biso  1.000000 C
   C858       1.0     0.709806      0.253686      0.701041     Biso  1.000000 C
   C859       1.0     0.984363      0.066628      0.444746     Biso  1.000000 C
   C860       1.0     0.017242      0.976907      0.123177     Biso  1.000000 C
   C861       1.0     0.914272      0.906084      0.400039     Biso  1.000000 C
   C862       1.0     0.854123      0.938444      0.170898     Biso  1.000000 C
   C863       1.0     0.964445      0.139880      0.895403     Biso  1.000000 C
   C864       1.0     0.974977      0.136186      0.960039     Biso  1.000000 C
   C865       1.0     0.971675      0.098472      0.989939     Biso  1.000000 C
   C866       1.0     0.953317      0.105054      0.864518     Biso  1.000000 C
   C867       1.0     0.953400      0.065968      0.896137     Biso  1.000000 C
   C868       1.0     0.962288      0.062646      0.959328     Biso  1.000000 C
   C869       1.0     0.805501      0.975314      0.973884     Biso  1.000000 C
   C870       1.0     0.888769      0.935300      0.182900     Biso  1.000000 C
   C871       1.0     0.819572      0.014095      0.976865     Biso  1.000000 C
   C872       1.0     0.821867      0.940157      0.997045     Biso  1.000000 C
   C873       1.0     0.855010      0.944400      0.025159     Biso  1.000000 C
   C874       1.0     0.871364      0.984014      0.017045     Biso  1.000000 C
   C875       1.0     0.845375      0.868170      0.200749     Biso  1.000000 C
   C876       1.0     0.879916      0.862423      0.207595     Biso  1.000000 C
   C877       1.0     0.901556      0.896183      0.198775     Biso  1.000000 C
   C878       1.0     0.832183      0.905642      0.181109     Biso  1.000000 C
   C879       1.0     0.852219      0.018994      0.001105     Biso  1.000000 C
   C880       1.0     0.565833      0.852924      0.420902     Biso  1.000000 C
   C881       1.0     0.181237      0.866997      0.687066     Biso  1.000000 C
   C882       1.0     0.272825      0.044800      0.773995     Biso  1.000000 C
   C883       1.0     0.558147      0.871077      0.709224     Biso  1.000000 C
   C884       1.0     0.574646      0.890522      0.583831     Biso  1.000000 C
   C885       1.0     0.599199      0.894182      0.633456     Biso  1.000000 C
   C886       1.0     0.590819      0.886369      0.694116     Biso  1.000000 C
   C887       1.0     0.730967      0.961217      0.817977     Biso  1.000000 C
   C888       1.0     0.720220      0.923810      0.842629     Biso  1.000000 C
   C889       1.0     0.685962      0.915432      0.855378     Biso  1.000000 C
   C890       1.0     0.532742      0.869355      0.660779     Biso  1.000000 C
   C891       1.0     0.708386      0.987901      0.793575     Biso  1.000000 C
   C892       1.0     0.660963      0.941100      0.830456     Biso  1.000000 C
   C893       1.0     0.672497      0.102669      0.939190     Biso  1.000000 C
   C894       1.0     0.638633      0.101613      0.933631     Biso  1.000000 C
   C895       1.0     0.623238      0.062455      0.937230     Biso  1.000000 C
   C896       1.0     0.691176      0.066658      0.948665     Biso  1.000000 C
   C897       1.0     0.674802      0.028216      0.958070     Biso  1.000000 C
   C898       1.0     0.639625      0.025229      0.948159     Biso  1.000000 C
   C899       1.0     0.671868      0.977580      0.797119     Biso  1.000000 C
   C900       1.0     0.643192      0.853999      0.097089     Biso  1.000000 C
   C901       1.0     0.540366      0.879955      0.597973     Biso  1.000000 C
   C902       1.0     0.592377      0.754923      0.818752     Biso  1.000000 C
   C903       1.0     0.682172      0.699255      0.369187     Biso  1.000000 C
   C904       1.0     0.696912      0.735993      0.389696     Biso  1.000000 C
   C905       1.0     0.684617      0.751134      0.445898     Biso  1.000000 C
   C906       1.0     0.656742      0.680102      0.405241     Biso  1.000000 C
   C907       1.0     0.643513      0.699151      0.458818     Biso  1.000000 C
   C908       1.0     0.657549      0.734802      0.480879     Biso  1.000000 C
   C909       1.0     0.625476      0.644423      0.719642     Biso  1.000000 C
   C910       1.0     0.623624      0.773330      0.805813     Biso  1.000000 C
   C911       1.0     0.598828      0.664565      0.688608     Biso  1.000000 C
   C912       1.0     0.656176      0.664334      0.727156     Biso  1.000000 C
   C913       1.0     0.661174      0.705727      0.702123     Biso  1.000000 C
   C914       1.0     0.634086      0.725233      0.674071     Biso  1.000000 C
   C915       1.0     0.619315      0.709573      0.897396     Biso  1.000000 C
   C916       1.0     0.649415      0.726940      0.878971     Biso  1.000000 C
   C917       1.0     0.652782      0.760120      0.837669     Biso  1.000000 C
   C918       1.0     0.590060      0.722986      0.864444     Biso  1.000000 C
   C919       1.0     0.603846      0.704981      0.665618     Biso  1.000000 C
   C920       1.0     0.267752      0.035965      0.835342     Biso  1.000000 C
   C921       1.0     0.629619      0.886513      0.130898     Biso  1.000000 C
   C922       1.0     0.632690      0.845854      0.038161     Biso  1.000000 C
   C923       1.0     0.293019      0.888094      0.114212     Biso  1.000000 C
   C924       1.0     0.286549      0.877717      0.052158     Biso  1.000000 C
   C925       1.0     0.306530      0.891603      0.003030     Biso  1.000000 C
   C926       1.0     0.323895      0.909525      0.126245     Biso  1.000000 C
   C927       1.0     0.346134      0.923469      0.079268     Biso  1.000000 C
   C928       1.0     0.336406      0.913479      0.016517     Biso  1.000000 C
   C929       1.0     0.291085      0.105125      0.027379     Biso  1.000000 C
   C930       1.0     0.395280      0.898872      0.852294     Biso  1.000000 C
   C931       1.0     0.282598      0.065974      0.052531     Biso  1.000000 C
   C932       1.0     0.310846      0.107307      0.975012     Biso  1.000000 C
   C933       1.0     0.321563      0.071131      0.945692     Biso  1.000000 C
   C934       1.0     0.314433      0.032514      0.973294     Biso  1.000000 C
   C935       1.0     0.252752      0.114006      0.788945     Biso  1.000000 C
   C936       1.0     0.243979      0.105450      0.851077     Biso  1.000000 C
   C937       1.0     0.252271      0.065624      0.873621     Biso  1.000000 C
   C938       1.0     0.266522      0.084473      0.750113     Biso  1.000000 C
   C939       1.0     0.293335      0.030141      0.023579     Biso  1.000000 C
   C940       1.0     0.607576      0.914575      0.102444     Biso  1.000000 C
   C941       1.0     0.400182      0.924875      0.803008     Biso  1.000000 C
   C942       1.0     0.372468      0.865717      0.846419     Biso  1.000000 C
   C943       1.0     0.611131      0.875648      0.007356     Biso  1.000000 C
   C944       1.0     0.598285      0.909433      0.040328     Biso  1.000000 C
   C945       1.0     0.433183      0.943196      0.176690     Biso  1.000000 C
   C946       1.0     0.439864      0.967357      0.124994     Biso  1.000000 C
   C947       1.0     0.465524      0.957895      0.084194     Biso  1.000000 C
   C948       1.0     0.450386      0.905175      0.182025     Biso  1.000000 C
   C949       1.0     0.474047      0.892745      0.135851     Biso  1.000000 C
   C950       1.0     0.381013      0.923954      0.751521     Biso  1.000000 C
   C951       1.0     0.484881      0.921946      0.093571     Biso  1.000000 C
   C952       1.0     0.515757      0.961171      0.791685     Biso  1.000000 C
   C953       1.0     0.507428      0.933191      0.842323     Biso  1.000000 C
   C954       1.0     0.484471      0.015344      0.843572     Biso  1.000000 C
   C955       1.0     0.478396      0.989347      0.895872     Biso  1.000000 C
   C956       1.0     0.489205      0.946804      0.894795     Biso  1.000000 C
   C957       1.0     0.358306      0.890762      0.744535     Biso  1.000000 C
   C958       1.0     0.355245      0.859798      0.789744     Biso  1.000000 C
   C959       1.0     0.504043      0.002413      0.794119     Biso  1.000000 C
   C960       1.0     0.341985      0.956781      0.529385     Biso  1.000000 C
   C961       1.0     0.589366      0.854266      0.298174     Biso  1.000000 C
   C962       1.0     0.086497      0.631802      0.536305     Biso  1.000000 C
   C963       1.0     0.022496      0.631557      0.766847     Biso  1.000000 C
   C964       1.0     0.046573      0.631756      0.814308     Biso  1.000000 C
   C965       1.0     0.078037      0.651766      0.804629     Biso  1.000000 C
   C966       1.0     0.006560      0.691359      0.088628     Biso  1.000000 C
   C967       1.0     0.041555      0.693723      0.096070     Biso  1.000000 C
   C968       1.0     0.063756      0.694214      0.045066     Biso  1.000000 C
   C969       1.0     0.993658      0.694334      0.025413     Biso  1.000000 C
   C970       1.0     0.084210      0.669087      0.745121     Biso  1.000000 C
   C971       1.0     0.015912      0.701475      0.976647     Biso  1.000000 C
   C972       1.0     0.071374      0.799492      0.709735     Biso  1.000000 C
   C973       1.0     0.105759      0.788201      0.708820     Biso  1.000000 C
   C974       1.0     0.120244      0.772464      0.765045     Biso  1.000000 C
   C975       1.0     0.052570      0.791550      0.764789     Biso  1.000000 C
   C976       1.0     0.067205      0.781210      0.822891     Biso  1.000000 C
   C977       1.0     0.101218      0.767254      0.821381     Biso  1.000000 C
   C978       1.0     0.253203      0.726826      0.810165     Biso  1.000000 C
   C979       1.0     0.050829      0.699507      0.984784     Biso  1.000000 C
   C980       1.0     0.233682      0.694945      0.837544     Biso  1.000000 C
   C981       1.0     0.060421      0.666152      0.696141     Biso  1.000000 C
   C982       1.0     0.124405      0.533705      0.813625     Biso  1.000000 C
   C983       1.0     0.091240      0.673891      0.525646     Biso  1.000000 C
   C984       1.0     0.111912      0.609143      0.563888     Biso  1.000000 C
   C985       1.0     0.123709      0.690346      0.541823     Biso  1.000000 C
   C986       1.0     0.148848      0.665553      0.564956     Biso  1.000000 C
   C987       1.0     0.142460      0.625914      0.580366     Biso  1.000000 C
   C988       1.0     0.282192      0.633337      0.736078     Biso  1.000000 C
   C989       1.0     0.273229      0.595393      0.761209     Biso  1.000000 C
   C990       1.0     0.029733      0.648546      0.709498     Biso  1.000000 C
   C991       1.0     0.241223      0.580912      0.758190     Biso  1.000000 C
   C992       1.0     0.223344      0.640941      0.705212     Biso  1.000000 C
   C993       1.0     0.215250      0.602300      0.731452     Biso  1.000000 C
   C994       1.0     0.108560      0.450390      0.827693     Biso  1.000000 C
   C995       1.0     0.125783      0.469445      0.873092     Biso  1.000000 C
   C996       1.0     0.136728      0.510386      0.864727     Biso  1.000000 C
   C997       1.0     0.102162      0.468558      0.770655     Biso  1.000000 C
   C998       1.0     0.109254      0.511331      0.765486     Biso  1.000000 C
   C999       1.0     0.256720      0.656911      0.708523     Biso  1.000000 C
   C1000      1.0     0.236436      0.552625      0.560270     Biso  1.000000 C
   C1001      1.0     0.206840      0.708158      0.875265     Biso  1.000000 C
   C1002      1.0     0.221831      0.782454      0.856804     Biso  1.000000 C
   C1003      1.0     0.124806      0.672571      0.311759     Biso  1.000000 C
   C1004      1.0     0.061183      0.686536      0.372967     Biso  1.000000 C
   C1005      1.0     0.081106      0.721647      0.355305     Biso  1.000000 C
   C1006      1.0     0.113495      0.713807      0.326175     Biso  1.000000 C
   C1007      1.0     0.284126      0.709454      0.412050     Biso  1.000000 C
   C1008      1.0     0.278407      0.740448      0.368755     Biso  1.000000 C
   C1009      1.0     0.245900      0.754008      0.357771     Biso  1.000000 C
   C1010      1.0     0.102791      0.640441      0.328493     Biso  1.000000 C
   C1011      1.0     0.259656      0.696372      0.452753     Biso  1.000000 C
   C1012      1.0     0.220550      0.737405      0.392933     Biso  1.000000 C
   C1013      1.0     0.213824      0.950592      0.429452     Biso  1.000000 C
   C1014      1.0     0.241576      0.925455      0.442140     Biso  1.000000 C
   C1015      1.0     0.236516      0.882009      0.446701     Biso  1.000000 C
   C1016      1.0     0.181390      0.935110      0.423210     Biso  1.000000 C
   C1017      1.0     0.175478      0.892263      0.429540     Biso  1.000000 C
   C1018      1.0     0.202664      0.866122      0.446144     Biso  1.000000 C
   C1019      1.0     0.226185      0.710915      0.444086     Biso  1.000000 C
   C1020      1.0     0.247979      0.768679      0.817800     Biso  1.000000 C
   C1021      1.0     0.073641      0.648214      0.365021     Biso  1.000000 C
   C1022      1.0     0.068828      0.841820      0.193165     Biso  1.000000 C
   C1023      1.0     0.185819      0.666772      0.105613     Biso  1.000000 C
   C1024      1.0     0.215495      0.687491      0.088203     Biso  1.000000 C
   C1025      1.0     0.211850      0.729512      0.069119     Biso  1.000000 C
   C1026      1.0     0.155013      0.685152      0.110422     Biso  1.000000 C
   C1027      1.0     0.151591      0.725586      0.087869     Biso  1.000000 C
   C1028      1.0     0.179864      0.747545      0.070018     Biso  1.000000 C
   C1029      1.0     0.236854      0.887897      0.291468     Biso  1.000000 C
   C1030      1.0     0.091821      0.833559      0.239479     Biso  1.000000 C
   C1031      1.0     0.247431      0.849428      0.268232     Biso  1.000000 C
   C1032      1.0     0.204926      0.902630      0.275408     Biso  1.000000 C
   C1033      1.0     0.186187      0.880327      0.232308     Biso  1.000000 C
   C1034      1.0     0.197723      0.842809      0.204915     Biso  1.000000 C
   C1035      1.0     0.029415      0.870070      0.265719     Biso  1.000000 C
   C1036      1.0     0.054885      0.865075      0.311169     Biso  1.000000 C
   C1037      1.0     0.084909      0.847208      0.298555     Biso  1.000000 C
   C1038      1.0     0.037885      0.861026      0.202092     Biso  1.000000 C
   C1039      1.0     0.230476      0.829000      0.221380     Biso  1.000000 C
   C1040      1.0     0.233171      0.553055      0.495096     Biso  1.000000 C
   C1041      1.0     0.258095      0.571693      0.457393     Biso  1.000000 C
   C1042      1.0     0.265726      0.569006      0.587430     Biso  1.000000 C
   C1043      1.0     0.794498      0.257928      0.537875     Biso  1.000000 C
   C1044      1.0     0.735321      0.359258      0.334563     Biso  1.000000 C
   C1045      1.0     0.756462      0.324049      0.332389     Biso  1.000000 C
   C1046      1.0     0.783237      0.323070      0.376697     Biso  1.000000 C
   C1047      1.0     0.740928      0.391929      0.374305     Biso  1.000000 C
   C1048      1.0     0.768227      0.391072      0.414446     Biso  1.000000 C
   C1049      1.0     0.790477      0.355476      0.417692     Biso  1.000000 C
   C1050      1.0     0.817543      0.226062      0.547749     Biso  1.000000 C
   C1051      1.0     0.831880      0.491017      0.301871     Biso  1.000000 C
   C1052      1.0     0.844443      0.467428      0.408153     Biso  1.000000 C
   C1053      1.0     0.839563      0.449113      0.286285     Biso  1.000000 C
   C1054      1.0     0.850420      0.417157      0.325739     Biso  1.000000 C
   C1055      1.0     0.849719      0.427337      0.390119     Biso  1.000000 C
   C1056      1.0     0.897477      0.294332      0.595934     Biso  1.000000 C
   C1057      1.0     0.899138      0.281493      0.533616     Biso  1.000000 C
   C1058      1.0     0.911809      0.309519      0.489680     Biso  1.000000 C
   C1059      1.0     0.833488      0.498560      0.364017     Biso  1.000000 C
   C1060      1.0     0.910359      0.331306      0.614758     Biso  1.000000 C
   C1061      1.0     0.813933      0.187863      0.513134     Biso  1.000000 C
   C1062      1.0     0.759997      0.211210      0.471581     Biso  1.000000 C
   C1063      1.0     0.679980      0.312730      0.658224     Biso  1.000000 C
   C1064      1.0     0.336023      0.979634      0.582215     Biso  1.000000 C
   C1065      1.0     0.695910      0.294243      0.709224     Biso  1.000000 C
   C1066      1.0     0.763304      0.494186      0.700776     Biso  1.000000 C
   C1067      1.0     0.747792      0.469571      0.655754     Biso  1.000000 C
   C1068      1.0     0.742526      0.427423      0.659920     Biso  1.000000 C
   C1069      1.0     0.772445      0.472751      0.754521     Biso  1.000000 C
   C1070      1.0     0.765741      0.249532      0.502299     Biso  1.000000 C
   C1071      1.0     0.763740      0.431694      0.765835     Biso  1.000000 C
   C1072      1.0     0.892439      0.326136      0.782104     Biso  1.000000 C
   C1073      1.0     0.880352      0.363593      0.760721     Biso  1.000000 C
   C1074      1.0     0.848998      0.364333      0.728127     Biso  1.000000 C
   C1075      1.0     0.875242      0.290854      0.764344     Biso  1.000000 C
   C1076      1.0     0.845037      0.290203      0.728466     Biso  1.000000 C
   C1077      1.0     0.831489      0.328221      0.713980     Biso  1.000000 C
   C1078      1.0     0.784202      0.180560      0.476839     Biso  1.000000 C
   C1079      1.0     0.749383      0.408580      0.717570     Biso  1.000000 C
   C1080      1.0     0.920820      0.359418      0.569995     Biso  1.000000 C
   C1081      1.0     0.920941      0.350051      0.506237     Biso  1.000000 C
   C1082      1.0     0.996516      0.267003      0.238657     Biso  1.000000 C
   C1083      1.0     0.090864      0.443132      0.415027     Biso  1.000000 C
   C1084      1.0     0.094474      0.459308      0.478158     Biso  1.000000 C
   C1085      1.0     0.132592      0.276532      0.595837     Biso  1.000000 C
   C1086      1.0     0.110707      0.299701      0.633767     Biso  1.000000 C
   C1087      1.0     0.114813      0.342306      0.640144     Biso  1.000000 C
   C1088      1.0     0.158758      0.296407      0.565755     Biso  1.000000 C
   C1089      1.0     0.162604      0.339844      0.569113     Biso  1.000000 C
   C1090      1.0     0.086866      0.473221      0.368434     Biso  1.000000 C
   C1091      1.0     0.141085      0.362307      0.605293     Biso  1.000000 C
   C1092      1.0     0.267159      0.450469      0.760029     Biso  1.000000 C
   C1093      1.0     0.246629      0.446144      0.706721     Biso  1.000000 C
   C1094      1.0     0.221222      0.482041      0.816964     Biso  1.000000 C
   C1095      1.0     0.201734      0.478596      0.762839     Biso  1.000000 C
   C1096      1.0     0.214180      0.462105      0.708853     Biso  1.000000 C
   C1097      1.0     0.288773      0.584857      0.484785     Biso  1.000000 C
   C1098      1.0     0.290985      0.584614      0.548473     Biso  1.000000 C
   C1099      1.0     0.254914      0.467793      0.816212     Biso  1.000000 C
   C1100      1.0     0.091731      0.503088      0.490493     Biso  1.000000 C
   C1101      1.0     0.082564      0.530411      0.441643     Biso  1.000000 C
   C1102      1.0     0.079781      0.514453      0.380770     Biso  1.000000 C
   C1103      1.0     0.976182      0.250177      0.284357     Biso  1.000000 C
   C1104      1.0     0.973822      0.271832      0.341121     Biso  1.000000 C
   C1105      1.0     0.011303      0.306854      0.245108     Biso  1.000000 C
   C1106      1.0     0.006906      0.329692      0.301760     Biso  1.000000 C
   C1107      1.0     0.986172      0.312239      0.348194     Biso  1.000000 C
   C1108      1.0     0.022120      0.215265      0.570882     Biso  1.000000 C
   C1109      1.0     0.045488      0.233221      0.530304     Biso  1.000000 C
   C1110      1.0     0.041387      0.273677      0.509623     Biso  1.000000 C
   C1111      1.0     0.992400      0.236939      0.585559     Biso  1.000000 C
   C1112      1.0     0.988980      0.276864      0.566475     Biso  1.000000 C
   C1113      1.0     0.014028      0.298046      0.529027     Biso  1.000000 C
   C1114      1.0     0.947024      0.470307      0.611474     Biso  1.000000 C
   C1115      1.0     0.958353      0.477457      0.552375     Biso  1.000000 C
   C1116      1.0     0.988322      0.459799      0.526854     Biso  1.000000 C
   C1117      1.0     0.966066      0.447608      0.652795     Biso  1.000000 C
   C1118      1.0     0.995241      0.426564      0.630776     Biso  1.000000 C
   C1119      1.0     0.007976      0.435393      0.570130     Biso  1.000000 C
   C1120      1.0     0.562769      0.264685      0.592813     Biso  1.000000 C
   C1121      1.0     0.567050      0.308276      0.583278     Biso  1.000000 C
   C1122      1.0     0.201035      0.751239      0.886184     Biso  1.000000 C
   C1123      1.0     0.539682      0.334818      0.586850     Biso  1.000000 C
   C1124      1.0     0.067373      0.183390      0.075944     Biso  1.000000 C
   C1125      1.0     0.062378      0.154235      0.028529     Biso  1.000000 C
   C1126      1.0     0.089481      0.138234      0.995011     Biso  1.000000 C
   C1127      1.0     0.099479      0.202215      0.081016     Biso  1.000000 C
   C1128      1.0     0.127209      0.189346      0.041916     Biso  1.000000 C
   C1129      1.0     0.121680      0.157163      0.999386     Biso  1.000000 C
   C1130      1.0     0.193262      0.970648      0.112100     Biso  1.000000 C
   C1131      1.0     0.118668      0.190638      0.797086     Biso  1.000000 C
   C1132      1.0     0.166847      0.991342      0.141445     Biso  1.000000 C
   C1133      1.0     0.207769      0.986744      0.059674     Biso  1.000000 C
   C1134      1.0     0.197097      0.024017      0.034234     Biso  1.000000 C
   C1135      1.0     0.171830      0.047493      0.066841     Biso  1.000000 C
   C1136      1.0     0.288881      0.164912      0.209313     Biso  1.000000 C
   C1137      1.0     0.281764      0.124665      0.214446     Biso  1.000000 C
   C1138      1.0     0.250359      0.108938      0.194127     Biso  1.000000 C
   C1139      1.0     0.232645      0.181502      0.169035     Biso  1.000000 C
   C1140      1.0     0.155579      0.029524      0.117503     Biso  1.000000 C
   C1141      1.0     0.226257      0.138642      0.172510     Biso  1.000000 C
   C1142      1.0     0.084942      0.203732      0.782113     Biso  1.000000 C
   C1143      1.0     0.141573      0.183209      0.746579     Biso  1.000000 C
   C1144      1.0     0.104527      0.366881      0.116932     Biso  1.000000 C
   C1145      1.0     0.130044      0.344713      0.088891     Biso  1.000000 C
   C1146      1.0     0.007906      0.295050      0.860988     Biso  1.000000 C
   C1147      1.0     0.028779      0.328611      0.850065     Biso  1.000000 C
   C1148      1.0     0.059985      0.331837      0.878010     Biso  1.000000 C
   C1149      1.0     0.017701      0.263611      0.901594     Biso  1.000000 C
   C1150      1.0     0.048494      0.268117      0.934513     Biso  1.000000 C
   C1151      1.0     0.075294      0.209828      0.720831     Biso  1.000000 C
   C1152      1.0     0.069725      0.302958      0.923149     Biso  1.000000 C
   C1153      1.0     0.215538      0.335555      0.860621     Biso  1.000000 C
   C1154      1.0     0.192658      0.307143      0.885148     Biso  1.000000 C
   C1155      1.0     0.174944      0.362399      0.789321     Biso  1.000000 C
   C1156      1.0     0.153232      0.330502      0.804661     Biso  1.000000 C
   C1157      1.0     0.161479      0.302311      0.856720     Biso  1.000000 C
   C1158      1.0     0.096591      0.199802      0.671229     Biso  1.000000 C
   C1159      1.0     0.128819      0.186982      0.684869     Biso  1.000000 C
   C1160      1.0     0.205810      0.365898      0.818297     Biso  1.000000 C
   C1161      1.0     0.091678      0.225230      0.360957     Biso  1.000000 C
   C1162      1.0     0.081452      0.205828      0.304444     Biso  1.000000 C
   C1163      1.0     0.102570      0.179614      0.267475     Biso  1.000000 C
   C1164      1.0     0.348654      0.205549      0.485027     Biso  1.000000 C
   C1165      1.0     0.341732      0.198491      0.423688     Biso  1.000000 C
   C1166      1.0     0.331303      0.158619      0.406393     Biso  1.000000 C
   C1167      1.0     0.341867      0.176820      0.531159     Biso  1.000000 C
   C1168      1.0     0.331153      0.137645      0.509902     Biso  1.000000 C
   C1169      1.0     0.323434      0.127413      0.448582     Biso  1.000000 C
   C1170      1.0     0.304165      0.004768      0.215913     Biso  1.000000 C
   C1171      1.0     0.240689      0.140887      0.420957     Biso  1.000000 C
   C1172      1.0     0.335627      0.021027      0.234054     Biso  1.000000 C
   C1173      1.0     0.280977      0.992579      0.261744     Biso  1.000000 C
   C1174      1.0     0.290003      0.991600      0.325720     Biso  1.000000 C
   C1175      1.0     0.319151      0.009324      0.344014     Biso  1.000000 C
   C1176      1.0     0.286095      0.939908      0.601020     Biso  1.000000 C
   C1177      1.0     0.293651      0.913633      0.549059     Biso  1.000000 C
   C1178      1.0     0.321130      0.922020      0.513032     Biso  1.000000 C
   C1179      1.0     0.306713      0.971848      0.616360     Biso  1.000000 C
   C1180      1.0     0.341431      0.024578      0.298876     Biso  1.000000 C
   C1181      1.0     0.244472      0.166410      0.473578     Biso  1.000000 C
   C1182      1.0     0.245998      0.209199      0.465311     Biso  1.000000 C
   C1183      1.0     0.240201      0.158536      0.360567     Biso  1.000000 C
   C1184      1.0     0.126044      0.221724      0.372187     Biso  1.000000 C
   C1185      1.0     0.148618      0.194798      0.338817     Biso  1.000000 C
   C1186      1.0     0.137299      0.172043      0.285723     Biso  1.000000 C
   C1187      1.0     0.064472      0.975842      0.347693     Biso  1.000000 C
   C1188      1.0     0.092066      0.973969      0.306367     Biso  1.000000 C
   C1189      1.0     0.115169      0.007540      0.302707     Biso  1.000000 C
   C1190      1.0     0.062516      0.008384      0.390068     Biso  1.000000 C
   C1191      1.0     0.083165      0.043299      0.383974     Biso  1.000000 C
   C1192      1.0     0.111404      0.041887      0.339909     Biso  1.000000 C
   C1193      1.0     0.097583      0.062118      0.567339     Biso  1.000000 C
   C1194      1.0     0.105602      0.102368      0.550944     Biso  1.000000 C
   C1195      1.0     0.130691      0.109634      0.504524     Biso  1.000000 C
   C1196      1.0     0.113668      0.028269      0.542584     Biso  1.000000 C
   C1197      1.0     0.141478      0.035372      0.501444     Biso  1.000000 C
   C1198      1.0     0.148089      0.076365      0.480001     Biso  1.000000 C
   C1199      1.0     0.245166      0.228113      0.406351     Biso  1.000000 C
   C1200      1.0     0.244257      0.201377      0.357232     Biso  1.000000 C
   C1201      1.0     0.093153      0.357229      0.178134     Biso  1.000000 C
   C1202      1.0     0.143565      0.312064      0.122200     Biso  1.000000 C
   C1203      1.0     0.264619      0.194218      0.182136     Biso  1.000000 C
   C1204      1.0     0.109116      0.324562      0.211190     Biso  1.000000 C
   C1205      1.0     0.384788      0.509069      0.432615     Biso  1.000000 C
   C1206      1.0     0.365887      0.449085      0.705681     Biso  1.000000 C
   C1207      1.0     0.345269      0.482133      0.684967     Biso  1.000000 C
   C1208      1.0     0.329983      0.478968      0.627251     Biso  1.000000 C
   C1209      1.0     0.368612      0.414192      0.670486     Biso  1.000000 C
   C1210      1.0     0.353639      0.411644      0.611925     Biso  1.000000 C
   C1211      1.0     0.336226      0.443970      0.587988     Biso  1.000000 C
   C1212      1.0     0.407876      0.537506      0.458484     Biso  1.000000 C
   C1213      1.0     0.309736      0.312742      0.399626     Biso  1.000000 C
   C1214      1.0     0.279081      0.352357      0.476913     Biso  1.000000 C
   C1215      1.0     0.313719      0.347598      0.365587     Biso  1.000000 C
   C1216      1.0     0.297268      0.384757      0.380932     Biso  1.000000 C
   C1217      1.0     0.278765      0.387004      0.438002     Biso  1.000000 C
   C1218      1.0     0.170826      0.301457      0.340522     Biso  1.000000 C
   C1219      1.0     0.156769      0.326695      0.387843     Biso  1.000000 C
   C1220      1.0     0.169082      0.366761      0.405599     Biso  1.000000 C
   C1221      1.0     0.294893      0.316082      0.455762     Biso  1.000000 C
   C1222      1.0     0.199868      0.317943      0.312186     Biso  1.000000 C
   C1223      1.0     0.417445      0.572089      0.423716     Biso  1.000000 C
   C1224      1.0     0.382110      0.551934      0.337786     Biso  1.000000 C
   C1225      1.0     0.530044      0.248255      0.602450     Biso  1.000000 C
   C1226      1.0     0.134521      0.302701      0.183308     Biso  1.000000 C
   C1227      1.0     0.508009      0.318732      0.597862     Biso  1.000000 C
   C1228      1.0     0.495498      0.499745      0.589455     Biso  1.000000 C
   C1229      1.0     0.507455      0.482732      0.532594     Biso  1.000000 C
   C1230      1.0     0.488930      0.450227      0.504858     Biso  1.000000 C
   C1231      1.0     0.465183      0.486621      0.615496     Biso  1.000000 C
   C1232      1.0     0.372553      0.517318      0.373631     Biso  1.000000 C
   C1233      1.0     0.448008      0.453153      0.591099     Biso  1.000000 C
   C1234      1.0     0.420401      0.401651      0.204939     Biso  1.000000 C
   C1235      1.0     0.401668      0.376720      0.244718     Biso  1.000000 C
   C1236      1.0     0.396971      0.387677      0.309544     Biso  1.000000 C
   C1237      1.0     0.436269      0.436428      0.231862     Biso  1.000000 C
   C1238      1.0     0.436685      0.442893      0.298077     Biso  1.000000 C
   C1239      1.0     0.417796      0.416979      0.338757     Biso  1.000000 C
   C1240      1.0     0.405909      0.579060      0.363474     Biso  1.000000 C
   C1241      1.0     0.458885      0.437069      0.532074     Biso  1.000000 C
   C1242      1.0     0.214260      0.355442      0.334354     Biso  1.000000 C
   C1243      1.0     0.503081      0.275577      0.607633     Biso  1.000000 C
   C1244      1.0     0.113415      0.508679      0.200187     Biso  1.000000 C
   C1245      1.0     0.316215      0.321513      0.200698     Biso  1.000000 C
   C1246      1.0     0.366095      0.309175      0.113828     Biso  1.000000 C
   C1247      1.0     0.344575      0.342693      0.107990     Biso  1.000000 C
   C1248      1.0     0.318960      0.348780      0.151266     Biso  1.000000 C
   C1249      1.0     0.329773      0.380057      0.906080     Biso  1.000000 C
   C1250      1.0     0.324083      0.419457      0.932279     Biso  1.000000 C
   C1251      1.0     0.300615      0.424169      0.980474     Biso  1.000000 C
   C1252      1.0     0.340089      0.292459      0.211873     Biso  1.000000 C
   C1253      1.0     0.314293      0.346039      0.932549     Biso  1.000000 C
   C1254      1.0     0.283405      0.388690      0.005066     Biso  1.000000 C
   C1255      1.0     0.206890      0.542221      0.051484     Biso  1.000000 C
   C1256      1.0     0.194715      0.521732      0.106146     Biso  1.000000 C
   C1257      1.0     0.189629      0.479247      0.108685     Biso  1.000000 C
   C1258      1.0     0.212569      0.517984      0.996288     Biso  1.000000 C
   C1259      1.0     0.211199      0.476137      0.998374     Biso  1.000000 C
   C1260      1.0     0.198838      0.380904      0.377393     Biso  1.000000 C
   C1261      1.0     0.290657      0.349345      0.979824     Biso  1.000000 C
   C1262      1.0     0.363785      0.283860      0.167285     Biso  1.000000 C
   C1263      1.0     0.197147      0.456858      0.051852     Biso  1.000000 C
   C1264      1.0     0.287854      0.504900      0.110265     Biso  1.000000 C
   C1265      1.0     0.302807      0.480662      0.156938     Biso  1.000000 C
   C1266      1.0     0.120214      0.468370      0.214450     Biso  1.000000 C
   C1267      1.0     0.148247      0.458454      0.249385     Biso  1.000000 C
   C1268      1.0     0.133752      0.541051      0.221138     Biso  1.000000 C
   C1269      1.0     0.160988      0.532597      0.261739     Biso  1.000000 C
   C1270      1.0     0.294006      0.634470      0.274437     Biso  1.000000 C
   C1271      1.0     0.309453      0.603681      0.310403     Biso  1.000000 C
   C1272      1.0     0.168579      0.491177      0.271989     Biso  1.000000 C
   C1273      1.0     0.269641      0.625948      0.229688     Biso  1.000000 C
   C1274      1.0     0.257526      0.586560      0.223846     Biso  1.000000 C
   C1275      1.0     0.268116      0.554436      0.262645     Biso  1.000000 C
   C1276      1.0     0.342258      0.533088      0.081936     Biso  1.000000 C
   C1277      1.0     0.356214      0.509836      0.128913     Biso  1.000000 C
   C1278      1.0     0.337518      0.482047      0.166904     Biso  1.000000 C
   C1279      1.0     0.308301      0.531507      0.071632     Biso  1.000000 C
   C1280      1.0     0.296321      0.563806      0.303357     Biso  1.000000 C
   H1         1.0     0.540867      0.962436      0.091876     Biso  1.000000 H
   H2         1.0     0.573028      0.005710      0.989303     Biso  1.000000 H
   H3         1.0     0.603661      0.994219      0.038733     Biso  1.000000 H
   H4         1.0     0.569841      0.931841      0.960160     Biso  1.000000 H
   H5         1.0     0.525538      0.968692      0.014660     Biso  1.000000 H
   H6         1.0     0.527985      0.888321      0.067017     Biso  1.000000 H
   H7         1.0     0.385482      0.873404      0.978626     Biso  1.000000 H
   H8         1.0     0.523333      0.885257      0.952975     Biso  1.000000 H
   H9         1.0     0.460922      0.934794      0.976512     Biso  1.000000 H
   H10        1.0     0.445080      0.859844      0.946835     Biso  1.000000 H
   H11        1.0     0.455043      0.877466      0.876282     Biso  1.000000 H
   H12        1.0     0.418685      0.941790      0.905324     Biso  1.000000 H
   H13        1.0     0.406513      0.913992      0.010296     Biso  1.000000 H
   H14        1.0     0.638825      0.962034      0.960768     Biso  1.000000 H
   H15        1.0     0.344535      0.919349      0.922916     Biso  1.000000 H
   H16        1.0     0.491102      0.867289      0.998132     Biso  1.000000 H
   H17        1.0     0.606955      0.004575      0.847585     Biso  1.000000 H
   H18        1.0     0.600554      0.802866      0.731657     Biso  1.000000 H
   H19        1.0     0.623263      0.912089      0.875911     Biso  1.000000 H
   H20        1.0     0.548951      0.772593      0.479839     Biso  1.000000 H
   H21        1.0     0.573787      0.732408      0.481762     Biso  1.000000 H
   H22        1.0     0.375141      0.978418      0.919164     Biso  1.000000 H
   H23        1.0     0.619513      0.766972      0.412881     Biso  1.000000 H
   H24        1.0     0.599247      0.802909      0.538061     Biso  1.000000 H
   H25        1.0     0.634927      0.816991      0.487428     Biso  1.000000 H
   H26        1.0     0.623278      0.735388      0.545984     Biso  1.000000 H
   H27        1.0     0.667409      0.804591      0.581736     Biso  1.000000 H
   H28        1.0     0.677660      0.753099      0.594838     Biso  1.000000 H
   H29        1.0     0.611993      0.780157      0.633126     Biso  1.000000 H
   H30        1.0     0.659809      0.829458      0.682445     Biso  1.000000 H
   H31        1.0     0.675691      0.788216      0.717566     Biso  1.000000 H
   H32        1.0     0.649823      0.850745      0.808098     Biso  1.000000 H
   H33        1.0     0.606582      0.848295      0.823327     Biso  1.000000 H
   H34        1.0     0.639705      0.897681      0.726014     Biso  1.000000 H
   H35        1.0     0.577246      0.916813      0.805669     Biso  1.000000 H
   H36        1.0     0.605269      0.951062      0.760498     Biso  1.000000 H
   H37        1.0     0.582194      0.968542      0.878544     Biso  1.000000 H
   H38        1.0     0.367806      0.991392      0.001268     Biso  1.000000 H
   H39        1.0     0.055481      0.886227      0.750197     Biso  1.000000 H
   H40        1.0     0.329540      0.965107      0.847817     Biso  1.000000 H
   H41        1.0     0.051132      0.920675      0.008981     Biso  1.000000 H
   H42        1.0     0.992540      0.944962      0.022990     Biso  1.000000 H
   H43        1.0     0.988003      0.982823      0.920232     Biso  1.000000 H
   H44        1.0     0.014775      0.021146      0.954651     Biso  1.000000 H
   H45        1.0     0.967426      0.019433      0.035454     Biso  1.000000 H
   H46        1.0     0.935583      0.965104      0.959077     Biso  1.000000 H
   H47        1.0     0.915464      0.011184      0.940964     Biso  1.000000 H
   H48        1.0     0.054494      0.955427      0.941944     Biso  1.000000 H
   H49        1.0     0.909111      0.022463      0.052752     Biso  1.000000 H
   H50        1.0     0.923493      0.932930      0.081951     Biso  1.000000 H
   H51        1.0     0.893086      0.996543      0.164061     Biso  1.000000 H
   H52        1.0     0.952217      0.007236      0.176913     Biso  1.000000 H
   H53        1.0     0.955584      0.955826      0.201534     Biso  1.000000 H
   H54        1.0     0.909257      0.012876      0.254619     Biso  1.000000 H
   H55        1.0     0.964791      0.051969      0.259203     Biso  1.000000 H
   H56        1.0     0.542780      0.763577      0.363168     Biso  1.000000 H
   H57        1.0     0.951155      0.970915      0.096514     Biso  1.000000 H
   H58        1.0     0.307294      0.972118      0.965849     Biso  1.000000 H
   H59        1.0     0.997781      0.913144      0.912025     Biso  1.000000 H
   H60        1.0     0.068663      0.880035      0.886328     Biso  1.000000 H
   H61        1.0     0.327014      0.018933      0.850190     Biso  1.000000 H
   H62        1.0     0.265042      0.995002      0.906424     Biso  1.000000 H
   H63        1.0     0.275125      0.930373      0.841371     Biso  1.000000 H
   H64        1.0     0.279807      0.962546      0.776493     Biso  1.000000 H
   H65        1.0     0.225533      0.988312      0.791165     Biso  1.000000 H
   H66        1.0     0.210254      0.987803      0.901743     Biso  1.000000 H
   H67        1.0     0.218724      0.935258      0.902672     Biso  1.000000 H
   H68        1.0     0.032401      0.860302      0.856729     Biso  1.000000 H
   H69        1.0     0.164783      0.931518      0.830577     Biso  1.000000 H
   H70        1.0     0.161441      0.023756      0.858652     Biso  1.000000 H
   H71        1.0     0.105168      0.974648      0.849108     Biso  1.000000 H
   H72        1.0     0.134020      0.936857      0.760456     Biso  1.000000 H
   H73        1.0     0.125700      0.977448      0.709953     Biso  1.000000 H
   H74        1.0     0.064191      0.968803      0.738893     Biso  1.000000 H
   H75        1.0     0.092635      0.895480      0.794936     Biso  1.000000 H
   H76        1.0     0.055261      0.952019      0.847329     Biso  1.000000 H
   H77        1.0     0.170778      0.003463      0.793826     Biso  1.000000 H
   H78        1.0     0.571783      0.678426      0.392255     Biso  1.000000 H
   H79        1.0     0.993763      0.310087      0.123540     Biso  1.000000 H
   H80        1.0     0.528574      0.679383      0.311072     Biso  1.000000 H
   H81        1.0     0.666623      0.121589      0.593208     Biso  1.000000 H
   H82        1.0     0.713554      0.074745      0.550638     Biso  1.000000 H
   H83        1.0     0.680694      0.012256      0.549955     Biso  1.000000 H
   H84        1.0     0.681107      0.010690      0.637069     Biso  1.000000 H
   H85        1.0     0.743706      0.010315      0.623536     Biso  1.000000 H
   H86        1.0     0.756377      0.032729      0.514532     Biso  1.000000 H
   H87        1.0     0.731767      0.992531      0.491208     Biso  1.000000 H
   H88        1.0     0.649224      0.078487      0.628784     Biso  1.000000 H
   H89        1.0     0.770912      0.944274      0.528294     Biso  1.000000 H
   H90        1.0     0.819018      0.019003      0.537090     Biso  1.000000 H
   H91        1.0     0.840240      0.947089      0.517602     Biso  1.000000 H
   H92        1.0     0.803534      0.903219      0.595456     Biso  1.000000 H
   H93        1.0     0.818029      0.935221      0.653548     Biso  1.000000 H
   H94        1.0     0.873756      0.914981      0.648982     Biso  1.000000 H
   H95        1.0     0.874838      0.893512      0.544038     Biso  1.000000 H
   H96        1.0     0.850834      0.851178      0.558784     Biso  1.000000 H
   H97        1.0     0.798158      0.001812      0.600922     Biso  1.000000 H
   H98        1.0     0.900992      0.838529      0.641128     Biso  1.000000 H
   H99        1.0     0.636120      0.054019      0.514843     Biso  1.000000 H
   H100       1.0     0.596857      0.100587      0.574045     Biso  1.000000 H
   H101       1.0     0.420401      0.951955      0.454439     Biso  1.000000 H
   H102       1.0     0.981948      0.013852      0.299730     Biso  1.000000 H
   H103       1.0     0.390866      0.913406      0.456106     Biso  1.000000 H
   H104       1.0     0.390350      0.910446      0.565165     Biso  1.000000 H
   H105       1.0     0.436908      0.940314      0.630112     Biso  1.000000 H
   H106       1.0     0.407871      0.972723      0.605933     Biso  1.000000 H
   H107       1.0     0.465679      0.962356      0.513534     Biso  1.000000 H
   H108       1.0     0.613438      0.143607      0.540610     Biso  1.000000 H
   H109       1.0     0.495385      0.958377      0.609589     Biso  1.000000 H
   H110       1.0     0.497908      0.049537      0.563447     Biso  1.000000 H
   H111       1.0     0.518165      0.003537      0.487660     Biso  1.000000 H
   H112       1.0     0.538063      0.972266      0.534712     Biso  1.000000 H
   H113       1.0     0.579235      0.025125      0.556392     Biso  1.000000 H
   H114       1.0     0.540929      0.092602      0.528238     Biso  1.000000 H
   H115       1.0     0.538429      0.069612      0.456998     Biso  1.000000 H
   H116       1.0     0.600123      0.085511      0.444226     Biso  1.000000 H
   H117       1.0     0.473215      0.998302      0.649080     Biso  1.000000 H
   H118       1.0     0.927877      0.904355      0.616829     Biso  1.000000 H
   H119       1.0     0.940659      0.878813      0.544540     Biso  1.000000 H
   H120       1.0     0.960452      0.861594      0.678915     Biso  1.000000 H
   H121       1.0     0.437584      0.644662      0.825807     Biso  1.000000 H
   H122       1.0     0.448409      0.590517      0.908031     Biso  1.000000 H
   H123       1.0     0.466661      0.659683      0.983484     Biso  1.000000 H
   H124       1.0     0.498898      0.629079      0.979313     Biso  1.000000 H
   H125       1.0     0.427619      0.604624      0.016472     Biso  1.000000 H
   H126       1.0     0.490506      0.619452      0.088587     Biso  1.000000 H
   H127       1.0     0.461185      0.587880      0.118914     Biso  1.000000 H
   H128       1.0     0.444068      0.681548      0.886384     Biso  1.000000 H
   H129       1.0     0.454241      0.674616      0.083554     Biso  1.000000 H
   H130       1.0     0.439874      0.653313      0.218305     Biso  1.000000 H
   H131       1.0     0.465311      0.723394      0.139242     Biso  1.000000 H
   H132       1.0     0.485588      0.710903      0.267874     Biso  1.000000 H
   H133       1.0     0.487903      0.757477      0.241773     Biso  1.000000 H
   H134       1.0     0.523273      0.686803      0.185531     Biso  1.000000 H
   H135       1.0     0.548540      0.749022      0.273773     Biso  1.000000 H
   H136       1.0     0.578088      0.719167      0.226911     Biso  1.000000 H
   H137       1.0     0.479227      0.652260      0.196319     Biso  1.000000 H
   H138       1.0     0.393975      0.657335      0.941861     Biso  1.000000 H
   H139       1.0     0.347810      0.674100      0.859126     Biso  1.000000 H
   H140       1.0     0.381794      0.664896      0.805465     Biso  1.000000 H
   H141       1.0     0.983459      0.927500      0.636219     Biso  1.000000 H
   H142       1.0     0.997636      0.901866      0.568792     Biso  1.000000 H
   H143       1.0     0.359343      0.837885      0.494283     Biso  1.000000 H
   H144       1.0     0.903795      0.041267      0.463658     Biso  1.000000 H
   H145       1.0     0.321766      0.821108      0.470034     Biso  1.000000 H
   H146       1.0     0.388080      0.769710      0.469236     Biso  1.000000 H
   H147       1.0     0.346231      0.751036      0.458191     Biso  1.000000 H
   H148       1.0     0.378866      0.788403      0.570906     Biso  1.000000 H
   H149       1.0     0.397780      0.722682      0.542194     Biso  1.000000 H
   H150       1.0     0.352742      0.704069      0.546555     Biso  1.000000 H
   H151       1.0     0.357327      0.711888      0.661420     Biso  1.000000 H
   H152       1.0     0.396951      0.773585      0.659441     Biso  1.000000 H
   H153       1.0     0.428974      0.736742      0.645295     Biso  1.000000 H
   H154       1.0     0.420624      0.705503      0.744893     Biso  1.000000 H
   H155       1.0     0.359869      0.727689      0.762639     Biso  1.000000 H
   H156       1.0     0.376509      0.772915      0.786497     Biso  1.000000 H
   H157       1.0     0.412453      0.726102      0.860584     Biso  1.000000 H
   H158       1.0     0.593450      0.718135      0.356814     Biso  1.000000 H
   H159       1.0     0.941160      0.022046      0.389706     Biso  1.000000 H
   H160       1.0     0.939333      0.347568      0.139987     Biso  1.000000 H
   H161       1.0     0.915968      0.094681      0.305118     Biso  1.000000 H
   H162       1.0     0.756377      0.560085      0.584820     Biso  1.000000 H
   H163       1.0     0.786349      0.505081      0.525177     Biso  1.000000 H
   H164       1.0     0.804353      0.824002      0.487994     Biso  1.000000 H
   H165       1.0     0.837136      0.762751      0.462172     Biso  1.000000 H
   H166       1.0     0.818520      0.694346      0.496716     Biso  1.000000 H
   H167       1.0     0.733936      0.747828      0.590667     Biso  1.000000 H
   H168       1.0     0.751991      0.814949      0.555784     Biso  1.000000 H
   H169       1.0     0.707627      0.598192      0.421431     Biso  1.000000 H
   H170       1.0     0.820624      0.712398      0.888697     Biso  1.000000 H
   H171       1.0     0.841710      0.726212      0.693071     Biso  1.000000 H
   H172       1.0     0.776356      0.628054      0.754516     Biso  1.000000 H
   H173       1.0     0.789899      0.649178      0.867230     Biso  1.000000 H
   H174       1.0     0.877521      0.434503      0.673086     Biso  1.000000 H
   H175       1.0     0.852537      0.467035      0.575963     Biso  1.000000 H
   H176       1.0     0.840633      0.541727      0.578852     Biso  1.000000 H
   H177       1.0     0.875868      0.549039      0.770479     Biso  1.000000 H
   H178       1.0     0.842665      0.755045      0.802544     Biso  1.000000 H
   H179       1.0     0.883296      0.478262      0.773419     Biso  1.000000 H
   H180       1.0     0.731837      0.541352      0.363558     Biso  1.000000 H
   H181       1.0     0.544875      0.615903      0.555078     Biso  1.000000 H
   H182       1.0     0.689966      0.364670      0.449520     Biso  1.000000 H
   H183       1.0     0.701291      0.291541      0.427121     Biso  1.000000 H
   H184       1.0     0.544248      0.395128      0.763851     Biso  1.000000 H
   H185       1.0     0.601902      0.382627      0.773010     Biso  1.000000 H
   H186       1.0     0.642836      0.405980      0.688422     Biso  1.000000 H
   H187       1.0     0.557531      0.449727      0.582493     Biso  1.000000 H
   H188       1.0     0.519495      0.426189      0.673760     Biso  1.000000 H
   H189       1.0     0.771899      0.494557      0.413931     Biso  1.000000 H
   H190       1.0     0.637961      0.517867      0.878340     Biso  1.000000 H
   H191       1.0     0.691669      0.507970      0.707808     Biso  1.000000 H
   H192       1.0     0.583279      0.507518      0.706321     Biso  1.000000 H
   H193       1.0     0.582597      0.508574      0.821920     Biso  1.000000 H
   H194       1.0     0.530155      0.576773      0.453881     Biso  1.000000 H
   H195       1.0     0.574143      0.544284      0.393881     Biso  1.000000 H
   H196       1.0     0.634414      0.544886      0.431886     Biso  1.000000 H
   H197       1.0     0.602348      0.613570      0.593078     Biso  1.000000 H
   H198       1.0     0.691115      0.518110      0.818729     Biso  1.000000 H
   H199       1.0     0.583071      0.342300      0.461624     Biso  1.000000 H
   H200       1.0     0.019009      0.586527      0.531944     Biso  1.000000 H
   H201       1.0     0.940451      0.669326      0.575048     Biso  1.000000 H
   H202       1.0     0.044604      0.601996      0.054677     Biso  1.000000 H
   H203       1.0     0.102074      0.585949      0.077187     Biso  1.000000 H
   H204       1.0     0.983973      0.648030      0.312604     Biso  1.000000 H
   H205       1.0     0.930405      0.631342      0.261971     Biso  1.000000 H
   H206       1.0     0.929328      0.584807      0.173715     Biso  1.000000 H
   H207       1.0     0.037895      0.570440      0.182645     Biso  1.000000 H
   H208       1.0     0.039957      0.619043      0.272486     Biso  1.000000 H
   H209       1.0     0.029247      0.483410      0.964172     Biso  1.000000 H
   H210       1.0     0.967892      0.487739      0.394540     Biso  1.000000 H
   H211       1.0     0.899897      0.490962      0.239242     Biso  1.000000 H
   H212       1.0     0.003614      0.448962      0.217404     Biso  1.000000 H
   H213       1.0     0.012280      0.459336      0.334145     Biso  1.000000 H
   H214       1.0     0.036079      0.332464      0.048319     Biso  1.000000 H
   H215       1.0     0.022518      0.397338      0.986772     Biso  1.000000 H
   H216       1.0     0.969132      0.433127      0.002085     Biso  1.000000 H
   H217       1.0     0.380512      0.996555      0.509298     Biso  1.000000 H
   H218       1.0     0.911236      0.499512      0.353656     Biso  1.000000 H
   H219       1.0     0.987480      0.650440      0.507965     Biso  1.000000 H
   H220       1.0     0.089599      0.467861      0.984440     Biso  1.000000 H
   H221       1.0     0.006360      0.452152      0.808409     Biso  1.000000 H
   H222       1.0     0.954973      0.564426      0.695663     Biso  1.000000 H
   H223       1.0     0.998440      0.539753      0.625742     Biso  1.000000 H
   H224       1.0     0.957075      0.828724      0.848894     Biso  1.000000 H
   H225       1.0     0.992315      0.774776      0.883732     Biso  1.000000 H
   H226       1.0     0.982610      0.702187      0.845035     Biso  1.000000 H
   H227       1.0     0.893812      0.751834      0.748460     Biso  1.000000 H
   H228       1.0     0.906912      0.816245      0.788750     Biso  1.000000 H
   H229       1.0     0.127667      0.516955      0.042204     Biso  1.000000 H
   H230       1.0     0.842670      0.609695      0.079349     Biso  1.000000 H
   H231       1.0     0.936858      0.636358      0.994760     Biso  1.000000 H
   H232       1.0     0.850348      0.610202      0.886565     Biso  1.000000 H
   H233       1.0     0.818848      0.607344      0.975198     Biso  1.000000 H
   H234       1.0     0.963248      0.399450      0.839606     Biso  1.000000 H
   H235       1.0     0.913302      0.424096      0.901339     Biso  1.000000 H
   H236       1.0     0.909625      0.494784      0.936706     Biso  1.000000 H
   H237       1.0     0.996531      0.526451      0.826406     Biso  1.000000 H
   H238       1.0     0.901891      0.628164      0.097395     Biso  1.000000 H
   H239       1.0     0.594111      0.263712      0.438416     Biso  1.000000 H
   H240       1.0     0.652068      0.241375      0.425792     Biso  1.000000 H
   H241       1.0     0.652303      0.430116      0.154810     Biso  1.000000 H
   H242       1.0     0.399100      0.313768      0.891938     Biso  1.000000 H
   H243       1.0     0.462771      0.340086      0.734889     Biso  1.000000 H
   H244       1.0     0.477536      0.406603      0.778918     Biso  1.000000 H
   H245       1.0     0.576091      0.275255      0.749612     Biso  1.000000 H
   H246       1.0     0.559395      0.210792      0.711937     Biso  1.000000 H
   H247       1.0     0.500306      0.180811      0.747986     Biso  1.000000 H
   H248       1.0     0.485926      0.284803      0.858457     Biso  1.000000 H
   H249       1.0     0.420006      0.378169      0.947550     Biso  1.000000 H
   H250       1.0     0.540388      0.314483      0.830447     Biso  1.000000 H
   H251       1.0     0.420907      0.081155      0.687846     Biso  1.000000 H
   H252       1.0     0.455596      0.109349      0.775295     Biso  1.000000 H
   H253       1.0     0.363910      0.143416      0.868238     Biso  1.000000 H
   H254       1.0     0.331782      0.109785      0.789990     Biso  1.000000 H
   H255       1.0     0.349175      0.188581      0.125674     Biso  1.000000 H
   H256       1.0     0.404942      0.228930      0.106206     Biso  1.000000 H
   H257       1.0     0.445415      0.200941      0.036950     Biso  1.000000 H
   H258       1.0     0.358727      0.079279      0.695435     Biso  1.000000 H
   H259       1.0     0.393829      0.087055      0.023913     Biso  1.000000 H
   H260       1.0     0.454684      0.423479      0.885311     Biso  1.000000 H
   H261       1.0     0.404792      0.175491      0.672171     Biso  1.000000 H
   H262       1.0     0.918911      0.104342      0.431672     Biso  1.000000 H
   H263       1.0     0.864537      0.045500      0.434096     Biso  1.000000 H
   H264       1.0     0.876454      0.078861      0.495741     Biso  1.000000 H
   H265       1.0     0.274870      0.266963      0.089163     Biso  1.000000 H
   H266       1.0     0.222813      0.262441      0.017746     Biso  1.000000 H
   H267       1.0     0.230872      0.230753      0.909253     Biso  1.000000 H
   H268       1.0     0.332886      0.205297      0.958051     Biso  1.000000 H
   H269       1.0     0.437619      0.172123      0.577826     Biso  1.000000 H
   H270       1.0     0.327400      0.241262      0.057311     Biso  1.000000 H
   H271       1.0     0.205863      0.288508      0.724110     Biso  1.000000 H
   H272       1.0     0.258436      0.279083      0.776805     Biso  1.000000 H
   H273       1.0     0.280331      0.174905      0.657133     Biso  1.000000 H
   H274       1.0     0.229875      0.184704      0.598846     Biso  1.000000 H
   H275       1.0     0.442725      0.237117      0.510807     Biso  1.000000 H
   H276       1.0     0.414391      0.300312      0.543648     Biso  1.000000 H
   H277       1.0     0.385895      0.303935      0.648597     Biso  1.000000 H
   H278       1.0     0.193345      0.242471      0.626568     Biso  1.000000 H
   H279       1.0     0.346109      0.116072      0.089308     Biso  1.000000 H
   H280       1.0     0.559167      0.146931      0.817294     Biso  1.000000 H
   H281       1.0     0.553405      0.194472      0.890090     Biso  1.000000 H
   H282       1.0     0.606464      0.319447      0.170819     Biso  1.000000 H
   H283       1.0     0.659621      0.291587      0.139882     Biso  1.000000 H
   H284       1.0     0.437058      0.260065      0.407261     Biso  1.000000 H
   H285       1.0     0.488977      0.266451      0.462404     Biso  1.000000 H
   H286       1.0     0.533521      0.314787      0.418180     Biso  1.000000 H
   H287       1.0     0.466165      0.342097      0.263509     Biso  1.000000 H
   H288       1.0     0.429598      0.284738      0.306381     Biso  1.000000 H
   H289       1.0     0.600116      0.236301      0.321698     Biso  1.000000 H
   H290       1.0     0.472584      0.558277      0.288728     Biso  1.000000 H
   H291       1.0     0.527161      0.488767      0.409049     Biso  1.000000 H
   H292       1.0     0.534483      0.459572      0.213475     Biso  1.000000 H
   H293       1.0     0.492139      0.515721      0.192082     Biso  1.000000 H
   H294       1.0     0.680724      0.500405      0.174463     Biso  1.000000 H
   H295       1.0     0.678697      0.532320      0.279239     Biso  1.000000 H
   H296       1.0     0.655026      0.499804      0.363641     Biso  1.000000 H
   H297       1.0     0.628354      0.394900      0.242628     Biso  1.000000 H
   H298       1.0     0.490696      0.544674      0.391647     Biso  1.000000 H
   H299       1.0     0.657183      0.212751      0.296651     Biso  1.000000 H
   H300       1.0     0.687295      0.238271      0.203750     Biso  1.000000 H
   H301       1.0     0.512781      0.249437      0.957410     Biso  1.000000 H
   H302       1.0     0.534308      0.176108      0.000405     Biso  1.000000 H
   H303       1.0     0.523180      0.051833      0.933064     Biso  1.000000 H
   H304       1.0     0.537141      0.071358      0.828208     Biso  1.000000 H
   H305       1.0     0.581588      0.983554      0.194498     Biso  1.000000 H
   H306       1.0     0.606702      0.043763      0.156555     Biso  1.000000 H
   H307       1.0     0.579634      0.108069      0.158530     Biso  1.000000 H
   H308       1.0     0.487174      0.047674      0.214116     Biso  1.000000 H
   H309       1.0     0.522561      0.984502      0.230808     Biso  1.000000 H
   H310       1.0     0.397159      0.121457      0.355732     Biso  1.000000 H
   H311       1.0     0.389255      0.121138      0.239599     Biso  1.000000 H
   H312       1.0     0.428511      0.151579      0.172506     Biso  1.000000 H
   H313       1.0     0.485297      0.190359      0.333620     Biso  1.000000 H
   H314       1.0     0.449734      0.149575      0.397280     Biso  1.000000 H
   H315       1.0     0.463868      0.298108      0.961641     Biso  1.000000 H
   H316       1.0     0.438316      0.317123      0.065179     Biso  1.000000 H
   H317       1.0     0.461666      0.295925      0.155408     Biso  1.000000 H
   H318       1.0     0.543494      0.235416      0.063164     Biso  1.000000 H
   H319       1.0     0.892314      0.055051      0.321206     Biso  1.000000 H
   H320       1.0     0.356720      0.954623      0.393858     Biso  1.000000 H
   H321       1.0     0.336617      0.216684      0.832021     Biso  1.000000 H
   H322       1.0     0.309446      0.993593      0.436154     Biso  1.000000 H
   H323       1.0     0.769619      0.249265      0.172012     Biso  1.000000 H
   H324       1.0     0.816173      0.205291      0.153108     Biso  1.000000 H
   H325       1.0     0.810591      0.223840      0.033985     Biso  1.000000 H
   H326       1.0     0.789696      0.175420      0.030978     Biso  1.000000 H
   H327       1.0     0.862232      0.192981      0.065280     Biso  1.000000 H
   H328       1.0     0.834901      0.140362      0.971301     Biso  1.000000 H
   H329       1.0     0.878343      0.143355      0.991681     Biso  1.000000 H
   H330       1.0     0.758922      0.252458      0.096778     Biso  1.000000 H
   H331       1.0     0.836036      0.214934      0.947508     Biso  1.000000 H
   H332       1.0     0.862465      0.206504      0.843488     Biso  1.000000 H
   H333       1.0     0.828904      0.127864      0.872762     Biso  1.000000 H
   H334       1.0     0.840796      0.174180      0.749937     Biso  1.000000 H
   H335       1.0     0.813437      0.139628      0.751785     Biso  1.000000 H
   H336       1.0     0.885415      0.119431      0.786994     Biso  1.000000 H
   H337       1.0     0.853527      0.107593      0.659743     Biso  1.000000 H
   H338       1.0     0.893912      0.091589      0.688924     Biso  1.000000 H
   H339       1.0     0.885673      0.162505      0.862739     Biso  1.000000 H
   H340       1.0     0.879508      0.179071      0.676830     Biso  1.000000 H
   H341       1.0     0.812836      0.284889      0.069908     Biso  1.000000 H
   H342       1.0     0.764211      0.326591      0.100093     Biso  1.000000 H
   H343       1.0     0.984509      0.515991      0.003592     Biso  1.000000 H
   H344       1.0     0.950446      0.575843      0.052048     Biso  1.000000 H
   H345       1.0     0.991869      0.593996      0.067948     Biso  1.000000 H
   H346       1.0     0.000117      0.519230      0.118233     Biso  1.000000 H
   H347       1.0     0.942951      0.502204      0.067421     Biso  1.000000 H
   H348       1.0     0.922206      0.525606      0.131208     Biso  1.000000 H
   H349       1.0     0.972562      0.456041      0.136975     Biso  1.000000 H
   H350       1.0     0.771158      0.321004      0.176951     Biso  1.000000 H
   H351       1.0     0.896593      0.458347      0.129456     Biso  1.000000 H
   H352       1.0     0.917421      0.437134      0.039946     Biso  1.000000 H
   H353       1.0     0.885468      0.369380      0.125289     Biso  1.000000 H
   H354       1.0     0.892176      0.362070      0.045852     Biso  1.000000 H
   H355       1.0     0.848063      0.421222      0.110102     Biso  1.000000 H
   H356       1.0     0.836798      0.341747      0.054936     Biso  1.000000 H
   H357       1.0     0.808645      0.378145      0.031619     Biso  1.000000 H
   H358       1.0     0.823412      0.361502      0.172560     Biso  1.000000 H
   H359       1.0     0.911877      0.420366      0.177081     Biso  1.000000 H
   H360       1.0     0.001705      0.567606      0.908635     Biso  1.000000 H
   H361       1.0     0.871887      0.146164      0.574087     Biso  1.000000 H
   H362       1.0     0.871050      0.734940      0.352523     Biso  1.000000 H
   H363       1.0     0.676646      0.560392      0.107993     Biso  1.000000 H
   H364       1.0     0.715002      0.535274      0.090645     Biso  1.000000 H
   H365       1.0     0.664801      0.575355      0.006412     Biso  1.000000 H
   H366       1.0     0.684442      0.487518      0.026388     Biso  1.000000 H
   H367       1.0     0.663606      0.504243      0.961288     Biso  1.000000 H
   H368       1.0     0.638695      0.507190      0.092813     Biso  1.000000 H
   H369       1.0     0.591631      0.471351      0.038286     Biso  1.000000 H
   H370       1.0     0.735364      0.606834      0.049851     Biso  1.000000 H
   H371       1.0     0.626204      0.445468      0.064509     Biso  1.000000 H
   H372       1.0     0.612484      0.389964      0.901817     Biso  1.000000 H
   H373       1.0     0.581204      0.419119      0.939232     Biso  1.000000 H
   H374       1.0     0.623825      0.363022      0.012877     Biso  1.000000 H
   H375       1.0     0.574393      0.336197      0.918007     Biso  1.000000 H
   H376       1.0     0.579113      0.308190      0.986233     Biso  1.000000 H
   H377       1.0     0.640932      0.327297      0.926479     Biso  1.000000 H
   H378       1.0     0.599264      0.301162      0.840711     Biso  1.000000 H
   H379       1.0     0.626417      0.456192      0.925731     Biso  1.000000 H
   H380       1.0     0.903870      0.114743      0.585099     Biso  1.000000 H
   H381       1.0     0.679612      0.624913      0.133566     Biso  1.000000 H
   H382       1.0     0.729848      0.672559      0.139954     Biso  1.000000 H
   H383       1.0     0.193790      0.814387      0.543016     Biso  1.000000 H
   H384       1.0     0.909900      0.711538      0.351431     Biso  1.000000 H
   H385       1.0     0.854073      0.702073      0.258112     Biso  1.000000 H
   H386       1.0     0.890693      0.678131      0.246933     Biso  1.000000 H
   H387       1.0     0.876627      0.770625      0.239363     Biso  1.000000 H
   H388       1.0     0.904457      0.714292      0.143652     Biso  1.000000 H
   H389       1.0     0.905125      0.766487      0.142947     Biso  1.000000 H
   H390       1.0     0.679264      0.640484      0.053956     Biso  1.000000 H
   H391       1.0     0.844999      0.768237      0.149680     Biso  1.000000 H
   H392       1.0     0.842271      0.686607      0.090954     Biso  1.000000 H
   H393       1.0     0.784462      0.687362      0.135167     Biso  1.000000 H
   H394       1.0     0.792399      0.705045      0.030763     Biso  1.000000 H
   H395       1.0     0.793238      0.757351      0.036336     Biso  1.000000 H
   H396       1.0     0.738250      0.751506      0.088730     Biso  1.000000 H
   H397       1.0     0.744345      0.673713      0.028163     Biso  1.000000 H
   H398       1.0     0.706905      0.697831      0.011163     Biso  1.000000 H
   H399       1.0     0.842324      0.688682      0.165476     Biso  1.000000 H
   H400       1.0     0.985857      0.604332      0.957396     Biso  1.000000 H
   H401       1.0     0.930412      0.556625      0.954154     Biso  1.000000 H
   H402       1.0     0.925740      0.572297      0.829783     Biso  1.000000 H
   H403       1.0     0.463598      0.070579      0.054423     Biso  1.000000 H
   H404       1.0     0.525284      0.073434      0.050655     Biso  1.000000 H
   H405       1.0     0.502483      0.163702      0.077502     Biso  1.000000 H
   H406       1.0     0.543467      0.140015      0.091823     Biso  1.000000 H
   H407       1.0     0.480823      0.115655      0.151727     Biso  1.000000 H
   H408       1.0     0.538632      0.177023      0.189491     Biso  1.000000 H
   H409       1.0     0.520136      0.153925      0.248257     Biso  1.000000 H
   H410       1.0     0.478721      0.064389      0.990571     Biso  1.000000 H
   H411       1.0     0.473165      0.197054      0.158810     Biso  1.000000 H
   H412       1.0     0.479773      0.252550      0.238968     Biso  1.000000 H
   H413       1.0     0.546037      0.239386      0.172458     Biso  1.000000 H
   H414       1.0     0.517258      0.320279      0.213763     Biso  1.000000 H
   H415       1.0     0.551711      0.315846      0.168221     Biso  1.000000 H
   H416       1.0     0.550664      0.278420      0.301365     Biso  1.000000 H
   H417       1.0     0.582139      0.358617      0.278905     Biso  1.000000 H
   H418       1.0     0.576748      0.327610      0.344660     Biso  1.000000 H
   H419       1.0     0.517907      0.229774      0.262882     Biso  1.000000 H
   H420       1.0     0.523781      0.373091      0.267768     Biso  1.000000 H
   H421       1.0     0.470514      0.148967      0.989373     Biso  1.000000 H
   H422       1.0     0.468613      0.098730      0.904590     Biso  1.000000 H
   H423       1.0     0.840886      0.506097      0.870412     Biso  1.000000 H
   H424       1.0     0.263248      0.191863      0.837711     Biso  1.000000 H
   H425       1.0     0.306642      0.254189      0.834738     Biso  1.000000 H
   H426       1.0     0.317770      0.186647      0.735646     Biso  1.000000 H
   H427       1.0     0.325474      0.278374      0.716748     Biso  1.000000 H
   H428       1.0     0.330697      0.239656      0.663440     Biso  1.000000 H
   H429       1.0     0.377057      0.213724      0.751172     Biso  1.000000 H
   H430       1.0     0.425770      0.089772      0.924477     Biso  1.000000 H
   H431       1.0     0.369101      0.273376      0.814777     Biso  1.000000 H
   H432       1.0     0.436747      0.277613      0.744275     Biso  1.000000 H
   H433       1.0     0.406205      0.220782      0.836712     Biso  1.000000 H
   H434       1.0     0.435645      0.252584      0.880444     Biso  1.000000 H
   H435       1.0     0.443509      0.198890      0.773149     Biso  1.000000 H
   H436       1.0     0.467203      0.190116      0.908714     Biso  1.000000 H
   H437       1.0     0.485671      0.161581      0.854704     Biso  1.000000 H
   H438       1.0     0.413983      0.165962      0.912141     Biso  1.000000 H
   H439       1.0     0.377886      0.304518      0.754386     Biso  1.000000 H
   H440       1.0     0.545757      0.386762      0.399607     Biso  1.000000 H
   H441       1.0     0.507971      0.412381      0.364682     Biso  1.000000 H
   H442       1.0     0.569693      0.424086      0.291254     Biso  1.000000 H
   H443       1.0     0.752612      0.641595      0.649442     Biso  1.000000 H
   H444       1.0     0.758664      0.693843      0.646247     Biso  1.000000 H
   H445       1.0     0.820679      0.675165      0.622138     Biso  1.000000 H
   H446       1.0     0.818650      0.601582      0.601066     Biso  1.000000 H
   H447       1.0     0.796835      0.585415      0.666203     Biso  1.000000 H
   H448       1.0     0.854727      0.611445      0.720134     Biso  1.000000 H
   H449       1.0     0.873305      0.646219      0.613625     Biso  1.000000 H
   H450       1.0     0.780865      0.652454      0.529441     Biso  1.000000 H
   H451       1.0     0.884711      0.597864      0.601308     Biso  1.000000 H
   H452       1.0     0.889295      0.677842      0.714407     Biso  1.000000 H
   H453       1.0     0.927960      0.693127      0.676514     Biso  1.000000 H
   H454       1.0     0.951706      0.657513      0.773521     Biso  1.000000 H
   H455       1.0     0.890430      0.624928      0.795884     Biso  1.000000 H
   H456       1.0     0.887274      0.670057      0.845616     Biso  1.000000 H
   H457       1.0     0.941102      0.647416      0.897521     Biso  1.000000 H
   H458       1.0     0.961820      0.598162      0.831446     Biso  1.000000 H
   H459       1.0     0.913773      0.606625      0.715318     Biso  1.000000 H
   H460       1.0     0.723317      0.673550      0.490883     Biso  1.000000 H
   H461       1.0     0.706818      0.683875      0.564218     Biso  1.000000 H
   H462       1.0     0.716563      0.610666      0.590287     Biso  1.000000 H
   H463       1.0     0.574022      0.436305      0.426141     Biso  1.000000 H
   H464       1.0     0.590644      0.479327      0.376920     Biso  1.000000 H
   H465       1.0     0.615450      0.395066      0.348881     Biso  1.000000 H
   H466       1.0     0.637944      0.460889      0.440167     Biso  1.000000 H
   H467       1.0     0.664085      0.422775      0.421375     Biso  1.000000 H
   H468       1.0     0.603087      0.401142      0.482969     Biso  1.000000 H
   H469       1.0     0.670355      0.417728      0.539361     Biso  1.000000 H
   H470       1.0     0.646361      0.381568      0.573604     Biso  1.000000 H
   H471       1.0     0.612431      0.459692      0.540346     Biso  1.000000 H
   H472       1.0     0.675113      0.485706      0.566642     Biso  1.000000 H
   H473       1.0     0.671160      0.461899      0.634455     Biso  1.000000 H
   H474       1.0     0.613624      0.520151      0.608920     Biso  1.000000 H
   H475       1.0     0.688793      0.549006      0.609068     Biso  1.000000 H
   H476       1.0     0.654858      0.581099      0.639823     Biso  1.000000 H
   H477       1.0     0.668777      0.547032      0.513998     Biso  1.000000 H
   H478       1.0     0.663694      0.639210      0.561450     Biso  1.000000 H
   H479       1.0     0.672031      0.622123      0.484688     Biso  1.000000 H
   H480       1.0     0.598014      0.255767      0.874048     Biso  1.000000 H
   H481       1.0     0.663980      0.264421      0.869752     Biso  1.000000 H
   H482       1.0     0.662529      0.336461      0.834683     Biso  1.000000 H
   H483       1.0     0.642608      0.319588      0.765059     Biso  1.000000 H
   H484       1.0     0.235158      0.427064      0.358825     Biso  1.000000 H
   H485       1.0     0.184243      0.481909      0.406063     Biso  1.000000 H
   H486       1.0     0.163886      0.445487      0.367835     Biso  1.000000 H
   H487       1.0     0.207699      0.455741      0.278320     Biso  1.000000 H
   H488       1.0     0.242936      0.504620      0.364500     Biso  1.000000 H
   H489       1.0     0.217852      0.540686      0.334131     Biso  1.000000 H
   H490       1.0     0.235108      0.509861      0.222429     Biso  1.000000 H
   H491       1.0     0.216735      0.411389      0.485175     Biso  1.000000 H
   H492       1.0     0.263774      0.455259      0.294203     Biso  1.000000 H
   H493       1.0     0.255127      0.451022      0.176973     Biso  1.000000 H
   H494       1.0     0.275619      0.395011      0.238011     Biso  1.000000 H
   H495       1.0     0.315461      0.414213      0.232085     Biso  1.000000 H
   H496       1.0     0.311675      0.405108      0.112491     Biso  1.000000 H
   H497       1.0     0.240777      0.373150      0.146860     Biso  1.000000 H
   H498       1.0     0.267397      0.342076      0.101781     Biso  1.000000 H
   H499       1.0     0.258829      0.428231      0.066829     Biso  1.000000 H
   H500       1.0     0.300046      0.484896      0.280344     Biso  1.000000 H
   H501       1.0     0.211855      0.350134      0.033310     Biso  1.000000 H
   H502       1.0     0.223351      0.462034      0.471265     Biso  1.000000 H
   H503       1.0     0.272958      0.423678      0.561677     Biso  1.000000 H
   H504       1.0     0.459206      0.336436      0.623981     Biso  1.000000 H
   H505       1.0     0.013710      0.887148      0.639828     Biso  1.000000 H
   H506       1.0     0.486828      0.379164      0.607318     Biso  1.000000 H
   H507       1.0     0.460211      0.331696      0.503832     Biso  1.000000 H
   H508       1.0     0.493732      0.360738      0.499136     Biso  1.000000 H
   H509       1.0     0.421313      0.389077      0.540922     Biso  1.000000 H
   H510       1.0     0.416045      0.362976      0.437524     Biso  1.000000 H
   H511       1.0     0.277748      0.448950      0.421069     Biso  1.000000 H
   H512       1.0     0.458199      0.383738      0.418013     Biso  1.000000 H
   H513       1.0     0.374299      0.409265      0.469603     Biso  1.000000 H
   H514       1.0     0.358689      0.427565      0.396718     Biso  1.000000 H
   H515       1.0     0.387734      0.467029      0.507213     Biso  1.000000 H
   H516       1.0     0.322538      0.483711      0.443947     Biso  1.000000 H
   H517       1.0     0.337188      0.508009      0.514458     Biso  1.000000 H
   H518       1.0     0.329216      0.412979      0.507524     Biso  1.000000 H
   H519       1.0     0.274647      0.472539      0.533268     Biso  1.000000 H
   H520       1.0     0.432875      0.448670      0.411836     Biso  1.000000 H
   H521       1.0     0.221475      0.394286      0.982597     Biso  1.000000 H
   H522       1.0     0.188692      0.404371      0.101683     Biso  1.000000 H
   H523       1.0     0.161514      0.402130      0.969537     Biso  1.000000 H
   H524       1.0     0.165292      0.175384      0.171474     Biso  1.000000 H
   H525       1.0     0.180952      0.142919      0.275779     Biso  1.000000 H
   H526       1.0     0.156804      0.068672      0.243046     Biso  1.000000 H
   H527       1.0     0.115479      0.094079      0.249984     Biso  1.000000 H
   H528       1.0     0.124024      0.103129      0.362332     Biso  1.000000 H
   H529       1.0     0.188004      0.076513      0.342626     Biso  1.000000 H
   H530       1.0     0.174022      0.033365      0.372168     Biso  1.000000 H
   H531       1.0     0.138304      0.137157      0.154784     Biso  1.000000 H
   H532       1.0     0.176442      0.118276      0.424032     Biso  1.000000 H
   H533       1.0     0.212171      0.090315      0.510125     Biso  1.000000 H
   H534       1.0     0.238004      0.082720      0.382372     Biso  1.000000 H
   H535       1.0     0.273650      0.044288      0.469737     Biso  1.000000 H
   H536       1.0     0.276946      0.087706      0.508806     Biso  1.000000 H
   H537       1.0     0.308699      0.087586      0.377584     Biso  1.000000 H
   H538       1.0     0.337496      0.048604      0.492560     Biso  1.000000 H
   H539       1.0     0.358945      0.064101      0.429155     Biso  1.000000 H
   H540       1.0     0.214533      0.042596      0.469329     Biso  1.000000 H
   H541       1.0     0.193142      0.087423      0.174139     Biso  1.000000 H
   H542       1.0     0.215638      0.114166      0.065805     Biso  1.000000 H
   H543       1.0     0.186378      0.152215      0.067970     Biso  1.000000 H
   H544       1.0     0.138998      0.419303      0.031137     Biso  1.000000 H
   H545       1.0     0.161709      0.334895      0.013137     Biso  1.000000 H
   H546       1.0     0.124681      0.359814      0.924491     Biso  1.000000 H
   H547       1.0     0.093153      0.367562      0.986391     Biso  1.000000 H
   H548       1.0     0.091265      0.300499      0.011437     Biso  1.000000 H
   H549       1.0     0.111942      0.243073      0.957484     Biso  1.000000 H
   H550       1.0     0.146749      0.276087      0.981055     Biso  1.000000 H
   H551       1.0     0.117183      0.269907      0.848467     Biso  1.000000 H
   H552       1.0     0.173712      0.217991      0.910943     Biso  1.000000 H
   H553       1.0     0.172953      0.225184      0.831580     Biso  1.000000 H
   H554       1.0     0.107728      0.198083      0.888855     Biso  1.000000 H
   H555       1.0     0.164109      0.138808      0.860621     Biso  1.000000 H
   H556       1.0     0.125613      0.125733      0.879538     Biso  1.000000 H
   H557       1.0     0.172569      0.161553      0.961019     Biso  1.000000 H
   H558       1.0     0.182973      0.091777      0.961395     Biso  1.000000 H
   H559       1.0     0.142625      0.074877      0.966852     Biso  1.000000 H
   H560       1.0     0.137357      0.097677      0.070397     Biso  1.000000 H
   H561       1.0     0.154149      0.821227      0.506535     Biso  1.000000 H
   H562       1.0     0.381719      0.996359      0.404563     Biso  1.000000 H
   H563       1.0     0.173601      0.771341      0.504236     Biso  1.000000 H
   H564       1.0     0.197686      0.820447      0.349258     Biso  1.000000 H
   H565       1.0     0.929942      0.353100      0.375786     Biso  1.000000 H
   H566       1.0     0.966402      0.311235      0.438922     Biso  1.000000 H
   H567       1.0     0.012738      0.383425      0.431635     Biso  1.000000 H
   H568       1.0     0.031371      0.332620      0.421083     Biso  1.000000 H
   H569       1.0     0.988099      0.350776      0.532413     Biso  1.000000 H
   H570       1.0     0.061932      0.355608      0.540202     Biso  1.000000 H
   H571       1.0     0.033473      0.353220      0.600583     Biso  1.000000 H
   H572       1.0     0.959901      0.392487      0.371100     Biso  1.000000 H
   H573       1.0     0.041520      0.419926      0.497055     Biso  1.000000 H
   H574       1.0     0.067874      0.459735      0.598001     Biso  1.000000 H
   H575       1.0     0.103051      0.399914      0.512897     Biso  1.000000 H
   H576       1.0     0.133429      0.471014      0.583798     Biso  1.000000 H
   H577       1.0     0.150241      0.437134      0.521531     Biso  1.000000 H
   H578       1.0     0.132587      0.418502      0.648160     Biso  1.000000 H
   H579       1.0     0.199126      0.407337      0.592637     Biso  1.000000 H
   H580       1.0     0.191431      0.399091      0.668758     Biso  1.000000 H
   H581       1.0     0.074620      0.409737      0.616304     Biso  1.000000 H
   H582       1.0     0.170861      0.477316      0.668219     Biso  1.000000 H
   H583       1.0     0.948645      0.400856      0.486819     Biso  1.000000 H
   H584       1.0     0.901135      0.427592      0.499447     Biso  1.000000 H
   H585       1.0     0.712036      0.290301      0.796037     Biso  1.000000 H
   H586       1.0     0.723209      0.364265      0.821019     Biso  1.000000 H
   H587       1.0     0.691110      0.373518      0.761320     Biso  1.000000 H
   H588       1.0     0.733811      0.356151      0.679468     Biso  1.000000 H
   H589       1.0     0.769820      0.307474      0.756416     Biso  1.000000 H
   H590       1.0     0.785434      0.350853      0.779201     Biso  1.000000 H
   H591       1.0     0.800343      0.361533      0.659831     Biso  1.000000 H
   H592       1.0     0.905860      0.438319      0.418459     Biso  1.000000 H
   H593       1.0     0.757965      0.300515      0.630437     Biso  1.000000 H
   H594       1.0     0.829826      0.298909      0.581434     Biso  1.000000 H
   H595       1.0     0.803086      0.364314      0.563944     Biso  1.000000 H
   H596       1.0     0.768319      0.339638      0.523705     Biso  1.000000 H
   H597       1.0     0.830660      0.323711      0.457420     Biso  1.000000 H
   H598       1.0     0.858725      0.372220      0.520890     Biso  1.000000 H
   H599       1.0     0.828508      0.412556      0.509651     Biso  1.000000 H
   H600       1.0     0.868190      0.370384      0.408065     Biso  1.000000 H
   H601       1.0     0.789102      0.268240      0.664973     Biso  1.000000 H
   H602       1.0     0.188502      0.476942      0.552454     Biso  1.000000 H
   H603       1.0     0.229754      0.473764      0.583469     Biso  1.000000 H
   H604       1.0     0.212369      0.541232      0.648991     Biso  1.000000 H
   H605       1.0     0.188910      0.829013      0.966202     Biso  1.000000 H
   H606       1.0     0.217384      0.787513      0.981008     Biso  1.000000 H
   H607       1.0     0.150945      0.796661      0.038179     Biso  1.000000 H
   H608       1.0     0.184133      0.853486      0.079063     Biso  1.000000 H
   H609       1.0     0.218005      0.818145      0.091194     Biso  1.000000 H
   H610       1.0     0.183873      0.786558      0.178455     Biso  1.000000 H
   H611       1.0     0.125465      0.799136      0.132868     Biso  1.000000 H
   H612       1.0     0.169277      0.735143      0.952654     Biso  1.000000 H
   H613       1.0     0.136079      0.850484      0.148894     Biso  1.000000 H
   H614       1.0     0.139564      0.747616      0.208306     Biso  1.000000 H
   H615       1.0     0.097515      0.758361      0.232001     Biso  1.000000 H
   H616       1.0     0.126259      0.772028      0.338162     Biso  1.000000 H
   H617       1.0     0.186235      0.763279      0.277089     Biso  1.000000 H
   H618       1.0     0.182916      0.715820      0.292550     Biso  1.000000 H
   H619       1.0     0.168148      0.739484      0.406407     Biso  1.000000 H
   H620       1.0     0.156784      0.816880      0.380477     Biso  1.000000 H
   H621       1.0     0.141846      0.828288      0.261860     Biso  1.000000 H
   H622       1.0     0.147039      0.807944      0.863074     Biso  1.000000 H
   H623       1.0     0.128135      0.801042      0.939576     Biso  1.000000 H
   H624       1.0     0.133759      0.725614      0.857296     Biso  1.000000 H
   H625       1.0     0.152721      0.537444      0.605042     Biso  1.000000 H
   H626       1.0     0.170836      0.555185      0.536509     Biso  1.000000 H
   H627       1.0     0.189880      0.613726      0.605214     Biso  1.000000 H
   H628       1.0     0.134085      0.581427      0.684572     Biso  1.000000 H
   H629       1.0     0.150298      0.632223      0.691473     Biso  1.000000 H
   H630       1.0     0.182507      0.554998      0.729502     Biso  1.000000 H
   H631       1.0     0.166757      0.628189      0.798053     Biso  1.000000 H
   H632       1.0     0.179326      0.585664      0.836471     Biso  1.000000 H
   H633       1.0     0.112974      0.597256      0.774101     Biso  1.000000 H
   H634       1.0     0.138685      0.602862      0.908370     Biso  1.000000 H
   H635       1.0     0.098895      0.582631      0.892250     Biso  1.000000 H
   H636       1.0     0.126620      0.665793      0.849628     Biso  1.000000 H
   H637       1.0     0.110304      0.656199      0.957183     Biso  1.000000 H
   H638       1.0     0.071619      0.636864      0.934402     Biso  1.000000 H
   H639       1.0     0.056618      0.705736      0.887786     Biso  1.000000 H
   H640       1.0     0.112015      0.727173      0.974320     Biso  1.000000 H
   H641       1.0     0.084230      0.763402      0.951066     Biso  1.000000 H
   H642       1.0     0.223840      0.804714      0.447282     Biso  1.000000 H
   H643       1.0     0.836194      0.533490      0.980437     Biso  1.000000 H
   H644       1.0     0.891219      0.234277      0.377096     Biso  1.000000 H
   H645       1.0     0.857743      0.383529      0.948707     Biso  1.000000 H
   H646       1.0     0.894130      0.964373      0.501858     Biso  1.000000 H
   H647       1.0     0.950561      0.988414      0.539728     Biso  1.000000 H
   H648       1.0     0.798341      0.810980      0.827261     Biso  1.000000 H
   H649       1.0     0.783598      0.791808      0.722577     Biso  1.000000 H
   H650       1.0     0.811859      0.826630      0.625514     Biso  1.000000 H
   H651       1.0     0.869142      0.900042      0.752951     Biso  1.000000 H
   H652       1.0     0.840635      0.868547      0.845365     Biso  1.000000 H
   H653       1.0     0.849762      0.002364      0.675162     Biso  1.000000 H
   H654       1.0     0.893459      0.704403      0.462980     Biso  1.000000 H
   H655       1.0     0.928188      0.825777      0.469793     Biso  1.000000 H
   H656       1.0     0.876244      0.775936      0.631956     Biso  1.000000 H
   H657       1.0     0.875680      0.707077      0.571612     Biso  1.000000 H
   H658       1.0     0.023315      0.714037      0.579289     Biso  1.000000 H
   H659       1.0     0.991871      0.726937      0.672780     Biso  1.000000 H
   H660       1.0     0.962220      0.789561      0.689476     Biso  1.000000 H
   H661       1.0     0.004561      0.838247      0.518225     Biso  1.000000 H
   H662       1.0     0.921291      0.759429      0.415937     Biso  1.000000 H
   H663       1.0     0.030560      0.771727      0.497014     Biso  1.000000 H
   H664       1.0     0.902828      0.028133      0.709373     Biso  1.000000 H
   H665       1.0     0.811090      0.033383      0.322274     Biso  1.000000 H
   H666       1.0     0.678457      0.044340      0.443664     Biso  1.000000 H
   H667       1.0     0.713775      0.067395      0.351937     Biso  1.000000 H
   H668       1.0     0.760220      0.147561      0.779066     Biso  1.000000 H
   H669       1.0     0.776691      0.158250      0.675669     Biso  1.000000 H
   H670       1.0     0.749283      0.124217      0.588847     Biso  1.000000 H
   H671       1.0     0.682741      0.063812      0.719498     Biso  1.000000 H
   H672       1.0     0.713604      0.100606      0.806505     Biso  1.000000 H
   H673       1.0     0.955326      0.021840      0.636512     Biso  1.000000 H
   H674       1.0     0.716495      0.833550      0.638003     Biso  1.000000 H
   H675       1.0     0.754899      0.953613      0.689727     Biso  1.000000 H
   H676       1.0     0.700370      0.938205      0.518225     Biso  1.000000 H
   H677       1.0     0.691900      0.863940      0.539417     Biso  1.000000 H
   H678       1.0     0.811764      0.961146      0.273025     Biso  1.000000 H
   H679       1.0     0.796404      0.903250      0.331233     Biso  1.000000 H
   H680       1.0     0.774011      0.904966      0.438560     Biso  1.000000 H
   H681       1.0     0.793178      0.035372      0.438077     Biso  1.000000 H
   H682       1.0     0.747123      0.880861      0.714184     Biso  1.000000 H
   H683       1.0     0.657286      0.168399      0.493159     Biso  1.000000 H
   H684       1.0     0.393591      0.867863      0.234820     Biso  1.000000 H
   H685       1.0     0.310891      0.850957      0.368007     Biso  1.000000 H
   H686       1.0     0.318720      0.739263      0.850873     Biso  1.000000 H
   H687       1.0     0.285163      0.775034      0.937291     Biso  1.000000 H
   H688       1.0     0.331842      0.503638      0.858002     Biso  1.000000 H
   H689       1.0     0.382656      0.520532      0.791806     Biso  1.000000 H
   H690       1.0     0.411192      0.581860      0.807964     Biso  1.000000 H
   H691       1.0     0.343741      0.615722      0.957317     Biso  1.000000 H
   H692       1.0     0.314381      0.550052      0.938159     Biso  1.000000 H
   H693       1.0     0.409126      0.767245      0.946435     Biso  1.000000 H
   H694       1.0     0.568178      0.589130      0.759481     Biso  1.000000 H
   H695       1.0     0.506751      0.670895      0.870523     Biso  1.000000 H
   H696       1.0     0.475900      0.550123      0.843595     Biso  1.000000 H
   H697       1.0     0.525052      0.534113      0.774724     Biso  1.000000 H
   H698       1.0     0.466975      0.438012      0.985852     Biso  1.000000 H
   H699       1.0     0.413703      0.469086      0.993070     Biso  1.000000 H
   H700       1.0     0.405180      0.543117      0.024062     Biso  1.000000 H
   H701       1.0     0.515424      0.556991      0.001978     Biso  1.000000 H
   H702       1.0     0.557160      0.659739      0.802214     Biso  1.000000 H
   H703       1.0     0.334435      0.869100      0.259640     Biso  1.000000 H
   H704       1.0     0.376972      0.798221      0.033755     Biso  1.000000 H
   H705       1.0     0.518450      0.762929      0.830484     Biso  1.000000 H
   H706       1.0     0.412756      0.816389      0.413345     Biso  1.000000 H
   H707       1.0     0.435294      0.843352      0.316937     Biso  1.000000 H
   H708       1.0     0.238545      0.808499      0.658197     Biso  1.000000 H
   H709       1.0     0.243893      0.759988      0.567334     Biso  1.000000 H
   H710       1.0     0.295555      0.741185      0.520788     Biso  1.000000 H
   H711       1.0     0.348296      0.811456      0.659344     Biso  1.000000 H
   H712       1.0     0.290444      0.838029      0.699132     Biso  1.000000 H
   H713       1.0     0.313895      0.799541      0.033255     Biso  1.000000 H
   H714       1.0     0.426421      0.555931      0.644923     Biso  1.000000 H
   H715       1.0     0.356846      0.647579      0.706057     Biso  1.000000 H
   H716       1.0     0.437915      0.681839      0.576261     Biso  1.000000 H
   H717       1.0     0.458337      0.612280      0.584421     Biso  1.000000 H
   H718       1.0     0.515532      0.834302      0.826625     Biso  1.000000 H
   H719       1.0     0.462954      0.866816      0.775151     Biso  1.000000 H
   H720       1.0     0.417991      0.827214      0.737541     Biso  1.000000 H
   H721       1.0     0.476928      0.716834      0.784974     Biso  1.000000 H
   H722       1.0     0.376834      0.574885      0.707097     Biso  1.000000 H
   H723       1.0     0.689645      0.191783      0.401511     Biso  1.000000 H
   H724       1.0     0.719594      0.145169      0.339500     Biso  1.000000 H
   H725       1.0     0.559034      0.177490      0.309270     Biso  1.000000 H
   H726       1.0     0.089987      0.163138      0.230947     Biso  1.000000 H
   H727       1.0     0.172577      0.190856      0.358337     Biso  1.000000 H
   H728       1.0     0.138169      0.239143      0.412231     Biso  1.000000 H
   H729       1.0     0.046778      0.950619      0.350029     Biso  1.000000 H
   H730       1.0     0.094877      0.950742      0.269463     Biso  1.000000 H
   H731       1.0     0.135879      0.005468      0.269110     Biso  1.000000 H
   H732       1.0     0.080252      0.067837      0.414437     Biso  1.000000 H
   H733       1.0     0.055501      0.213700      0.289336     Biso  1.000000 H
   H734       1.0     0.044887      0.008906      0.426856     Biso  1.000000 H
   H735       1.0     0.091698      0.127698      0.577584     Biso  1.000000 H
   H736       1.0     0.133682      0.141949      0.487655     Biso  1.000000 H
   H737       1.0     0.153262      0.008145      0.481385     Biso  1.000000 H
   H738       1.0     0.107764      0.996859      0.552667     Biso  1.000000 H
   H739       1.0     0.246163      0.261259      0.397211     Biso  1.000000 H
   H740       1.0     0.245284      0.213528      0.309293     Biso  1.000000 H
   H741       1.0     0.237435      0.139609      0.318243     Biso  1.000000 H
   H742       1.0     0.076439      0.054827      0.596612     Biso  1.000000 H
   H743       1.0     0.247679      0.157360      0.522818     Biso  1.000000 H
   H744       1.0     0.075472      0.245348      0.389371     Biso  1.000000 H
   H745       1.0     0.216607      0.205134      0.152265     Biso  1.000000 H
   H746       1.0     0.167577      0.177434      0.752867     Biso  1.000000 H
   H747       1.0     0.068520      0.211637      0.823151     Biso  1.000000 H
   H748       1.0     0.050263      0.224543      0.716813     Biso  1.000000 H
   H749       1.0     0.046883      0.194080      0.107506     Biso  1.000000 H
   H750       1.0     0.038258      0.138253      0.026197     Biso  1.000000 H
   H751       1.0     0.084789      0.113659      0.961474     Biso  1.000000 H
   H752       1.0     0.153623      0.199234      0.046811     Biso  1.000000 H
   H753       1.0     0.270556      0.225829      0.175311     Biso  1.000000 H
   H754       1.0     0.104938      0.227241      0.111314     Biso  1.000000 H
   H755       1.0     0.153330      0.976763      0.180946     Biso  1.000000 H
   H756       1.0     0.133273      0.038163      0.146378     Biso  1.000000 H
   H757       1.0     0.210367      0.036094      0.995415     Biso  1.000000 H
   H758       1.0     0.226260      0.967553      0.036288     Biso  1.000000 H
   H759       1.0     0.314100      0.172909      0.227199     Biso  1.000000 H
   H760       1.0     0.298431      0.102558      0.235406     Biso  1.000000 H
   H761       1.0     0.244885      0.076415      0.195236     Biso  1.000000 H
   H762       1.0     0.203618      0.939549      0.126962     Biso  1.000000 H
   H763       1.0     0.250214      0.228966      0.506423     Biso  1.000000 H
   H764       1.0     0.356107      0.237406      0.500929     Biso  1.000000 H
   H765       1.0     0.342624      0.220171      0.388814     Biso  1.000000 H
   H766       1.0     0.466168      0.015611      0.436841     Biso  1.000000 H
   H767       1.0     0.441597      0.076375      0.399380     Biso  1.000000 H
   H768       1.0     0.589552      0.092866      0.758260     Biso  1.000000 H
   H769       1.0     0.546551      0.133829      0.704371     Biso  1.000000 H
   H770       1.0     0.508119      0.099381      0.631974     Biso  1.000000 H
   H771       1.0     0.562686      0.986219      0.653928     Biso  1.000000 H
   H772       1.0     0.595905      0.016007      0.733273     Biso  1.000000 H
   H773       1.0     0.417966      0.037985      0.613406     Biso  1.000000 H
   H774       1.0     0.632608      0.944151      0.336058     Biso  1.000000 H
   H775       1.0     0.620109      0.979541      0.527114     Biso  1.000000 H
   H776       1.0     0.551125      0.022316      0.391210     Biso  1.000000 H
   H777       1.0     0.584980      0.984447      0.308215     Biso  1.000000 H
   H778       1.0     0.536320      0.235407      0.368471     Biso  1.000000 H
   H779       1.0     0.536255      0.232073      0.485161     Biso  1.000000 H
   H780       1.0     0.556652      0.166821      0.536412     Biso  1.000000 H
   H781       1.0     0.590073      0.122369      0.358142     Biso  1.000000 H
   H782       1.0     0.647526      0.934972      0.453254     Biso  1.000000 H
   H783       1.0     0.401818      0.107439      0.582540     Biso  1.000000 H
   H784       1.0     0.406363      0.126344      0.469705     Biso  1.000000 H
   H785       1.0     0.455967      0.794476      0.618329     Biso  1.000000 H
   H786       1.0     0.328558      0.158993      0.356336     Biso  1.000000 H
   H787       1.0     0.329081      0.110776      0.541126     Biso  1.000000 H
   H788       1.0     0.348133      0.182067      0.577821     Biso  1.000000 H
   H789       1.0     0.298461      0.004934      0.167673     Biso  1.000000 H
   H790       1.0     0.351838      0.036775      0.204293     Biso  1.000000 H
   H791       1.0     0.365461      0.039541      0.309776     Biso  1.000000 H
   H792       1.0     0.272951      0.979151      0.356693     Biso  1.000000 H
   H793       1.0     0.256078      0.979775      0.249199     Biso  1.000000 H
   H794       1.0     0.267715      0.935454      0.634849     Biso  1.000000 H
   H795       1.0     0.277184      0.887925      0.543690     Biso  1.000000 H
   H796       1.0     0.326706      0.901064      0.475970     Biso  1.000000 H
   H797       1.0     0.348599      0.007773      0.595098     Biso  1.000000 H
   H798       1.0     0.301843      0.990471      0.657105     Biso  1.000000 H
   H799       1.0     0.487602      0.782896      0.517119     Biso  1.000000 H
   H800       1.0     0.492470      0.841087      0.441815     Biso  1.000000 H
   H801       1.0     0.459068      0.902952      0.459455     Biso  1.000000 H
   H802       1.0     0.421050      0.855994      0.632987     Biso  1.000000 H
   H803       1.0     0.518739      0.476871      0.000708     Biso  1.000000 H
   H804       1.0     0.142738      0.182715      0.642819     Biso  1.000000 H
   H805       1.0     0.313404      0.644294      0.102126     Biso  1.000000 H
   H806       1.0     0.406087      0.688734      0.038199     Biso  1.000000 H
   H807       1.0     0.110076      0.984935      0.056499     Biso  1.000000 H
   H808       1.0     0.039734      0.123679      0.800379     Biso  1.000000 H
   H809       1.0     0.068633      0.101883      0.706981     Biso  1.000000 H
   H810       1.0     0.106273      0.042473      0.711992     Biso  1.000000 H
   H811       1.0     0.076632      0.021309      0.900085     Biso  1.000000 H
   H812       1.0     0.044491      0.089011      0.897149     Biso  1.000000 H
   H813       1.0     0.093361      0.888404      0.498746     Biso  1.000000 H
   H814       1.0     0.133627      0.006496      0.953444     Biso  1.000000 H
   H815       1.0     0.120044      0.852621      0.576609     Biso  1.000000 H
   H816       1.0     0.051195      0.976447      0.625593     Biso  1.000000 H
   H817       1.0     0.055145      0.946874      0.519358     Biso  1.000000 H
   H818       1.0     0.918719      0.972272      0.754460     Biso  1.000000 H
   H819       1.0     0.964984      0.023937      0.776688     Biso  1.000000 H
   H820       1.0     0.021343      0.999281      0.813226     Biso  1.000000 H
   H821       1.0     0.989719      0.874175      0.784607     Biso  1.000000 H
   H822       1.0     0.931279      0.903591      0.755417     Biso  1.000000 H
   H823       1.0     0.114335      0.882436      0.694367     Biso  1.000000 H
   H824       1.0     0.971334      0.791504      0.101029     Biso  1.000000 H
   H825       1.0     0.160279      0.880597      0.910460     Biso  1.000000 H
   H826       1.0     0.101804      0.915641      0.076192     Biso  1.000000 H
   H827       1.0     0.330534      0.910010      0.172826     Biso  1.000000 H
   H828       1.0     0.281884      0.134185      0.045081     Biso  1.000000 H
   H829       1.0     0.267214      0.062044      0.095177     Biso  1.000000 H
   H830       1.0     0.281902      0.001520      0.038273     Biso  1.000000 H
   H831       1.0     0.338085      0.071110      0.904580     Biso  1.000000 H
   H832       1.0     0.318131      0.136432      0.957066     Biso  1.000000 H
   H833       1.0     0.245549      0.143524      0.771826     Biso  1.000000 H
   H834       1.0     0.126733      0.860541      0.010886     Biso  1.000000 H
   H835       1.0     0.234912      0.129881      0.884020     Biso  1.000000 H
   H836       1.0     0.285547      0.021880      0.749570     Biso  1.000000 H
   H837       1.0     0.273211      0.089588      0.703321     Biso  1.000000 H
   H838       1.0     0.165445      0.847276      0.658963     Biso  1.000000 H
   H839       1.0     0.175718      0.914557      0.626568     Biso  1.000000 H
   H840       1.0     0.205497      0.965776      0.689839     Biso  1.000000 H
   H841       1.0     0.228467      0.873831      0.820531     Biso  1.000000 H
   H842       1.0     0.197047      0.823085      0.759932     Biso  1.000000 H
   H843       1.0     0.251745      0.059505      0.921997     Biso  1.000000 H
   H844       1.0     0.369715      0.939135      0.091986     Biso  1.000000 H
   H845       1.0     0.029989      0.785954      0.066106     Biso  1.000000 H
   H846       1.0     0.957836      0.895901      0.979016     Biso  1.000000 H
   H847       1.0     0.805811      0.912233      0.167853     Biso  1.000000 H
   H848       1.0     0.908139      0.882098      0.435462     Biso  1.000000 H
   H849       1.0     0.859148      0.927444      0.386784     Biso  1.000000 H
   H850       1.0     0.871271      0.975397      0.316148     Biso  1.000000 H
   H851       1.0     0.979145      0.947129      0.318916     Biso  1.000000 H
   H852       1.0     0.965094      0.891661      0.399166     Biso  1.000000 H
   H853       1.0     0.037732      0.148153      0.455581     Biso  1.000000 H
   H854       1.0     0.846310      0.965509      0.149496     Biso  1.000000 H
   H855       1.0     0.013575      0.165486      0.354798     Biso  1.000000 H
   H856       1.0     0.980275      0.035670      0.464048     Biso  1.000000 H
   H857       1.0     0.019645      0.079451      0.515145     Biso  1.000000 H
   H858       1.0     0.831324      0.229442      0.332399     Biso  1.000000 H
   H859       1.0     0.913164      0.165953      0.565676     Biso  1.000000 H
   H860       1.0     0.922321      0.172418      0.405287     Biso  1.000000 H
   H861       1.0     0.829866      0.102706      0.359146     Biso  1.000000 H
   H862       1.0     0.802304      0.164123      0.326756     Biso  1.000000 H
   H863       1.0     0.973779      0.120109      0.304309     Biso  1.000000 H
   H864       1.0     0.051896      0.831680      0.984338     Biso  1.000000 H
   H865       1.0     0.928421      0.889187      0.205505     Biso  1.000000 H
   H866       1.0     0.827138      0.844304      0.208334     Biso  1.000000 H
   H867       1.0     0.934341      0.845379      0.057832     Biso  1.000000 H
   H868       1.0     0.058420      0.052896      0.206908     Biso  1.000000 H
   H869       1.0     0.078473      0.072107      0.105125     Biso  1.000000 H
   H870       1.0     0.061897      0.032640      0.012402     Biso  1.000000 H
   H871       1.0     0.004867      0.948593      0.135364     Biso  1.000000 H
   H872       1.0     0.020592      0.989838      0.220595     Biso  1.000000 H
   H873       1.0     0.965450      0.169676      0.876631     Biso  1.000000 H
   H874       1.0     0.888935      0.832531      0.219680     Biso  1.000000 H
   H875       1.0     0.981159      0.162720      0.990478     Biso  1.000000 H
   H876       1.0     0.945544      0.038470      0.873031     Biso  1.000000 H
   H877       1.0     0.945879      0.110175      0.817638     Biso  1.000000 H
   H878       1.0     0.780234      0.971354      0.957503     Biso  1.000000 H
   H879       1.0     0.805794      0.042476      0.965515     Biso  1.000000 H
   H880       1.0     0.863548      0.050120      0.005675     Biso  1.000000 H
   H881       1.0     0.867155      0.920439      0.051014     Biso  1.000000 H
   H882       1.0     0.811761      0.909586      0.987710     Biso  1.000000 H
   H883       1.0     0.979007      0.099534      0.041045     Biso  1.000000 H
   H884       1.0     0.300788      0.884990      0.955617     Biso  1.000000 H
   H885       1.0     0.262281      0.861385      0.044319     Biso  1.000000 H
   H886       1.0     0.275679      0.878040      0.151724     Biso  1.000000 H
   H887       1.0     0.489050      0.778736      0.373367     Biso  1.000000 H
   H888       1.0     0.431133      0.747680      0.390658     Biso  1.000000 H
   H889       1.0     0.561802      0.909442      0.290701     Biso  1.000000 H
   H890       1.0     0.596882      0.855632      0.251243     Biso  1.000000 H
   H891       1.0     0.614626      0.799664      0.323119     Biso  1.000000 H
   H892       1.0     0.555286      0.845204      0.466059     Biso  1.000000 H
   H893       1.0     0.544968      0.913777      0.395256     Biso  1.000000 H
   H894       1.0     0.530899      0.668718      0.462538     Biso  1.000000 H
   H895       1.0     0.687776      0.686168      0.323732     Biso  1.000000 H
   H896       1.0     0.696326      0.778610      0.463323     Biso  1.000000 H
   H897       1.0     0.620964      0.689051      0.481618     Biso  1.000000 H
   H898       1.0     0.642979      0.653341      0.392724     Biso  1.000000 H
   H899       1.0     0.623208      0.614537      0.739617     Biso  1.000000 H
   H900       1.0     0.574428      0.649427      0.687586     Biso  1.000000 H
   H901       1.0     0.583534      0.718356      0.642712     Biso  1.000000 H
   H902       1.0     0.686002      0.720404      0.708407     Biso  1.000000 H
   H903       1.0     0.715982      0.754978      0.366423     Biso  1.000000 H
   H904       1.0     0.677603      0.648865      0.746695     Biso  1.000000 H
   H905       1.0     0.472411      0.641798      0.479165     Biso  1.000000 H
   H906       1.0     0.655931      0.626448      0.233074     Biso  1.000000 H
   H907       1.0     0.405343      0.602340      0.184258     Biso  1.000000 H
   H908       1.0     0.341053      0.597910      0.169790     Biso  1.000000 H
   H909       1.0     0.341406      0.774899      0.271738     Biso  1.000000 H
   H910       1.0     0.375607      0.728045      0.334790     Biso  1.000000 H
   H911       1.0     0.431802      0.699998      0.294445     Biso  1.000000 H
   H912       1.0     0.417067      0.765873      0.120882     Biso  1.000000 H
   H913       1.0     0.359947      0.792391      0.163656     Biso  1.000000 H
   H914       1.0     0.424352      0.678794      0.433507     Biso  1.000000 H
   H915       1.0     0.555214      0.813150      0.992336     Biso  1.000000 H
   H916       1.0     0.555552      0.793398      0.193676     Biso  1.000000 H
   H917       1.0     0.512278      0.700763      0.073024     Biso  1.000000 H
   H918       1.0     0.529090      0.737157      0.982889     Biso  1.000000 H
   H919       1.0     0.629298      0.557021      0.222880     Biso  1.000000 H
   H920       1.0     0.569834      0.547566      0.238982     Biso  1.000000 H
   H921       1.0     0.532126      0.607899      0.265924     Biso  1.000000 H
   H922       1.0     0.621770      0.685775      0.271553     Biso  1.000000 H
   H923       1.0     0.565610      0.837412      0.099755     Biso  1.000000 H
   H924       1.0     0.616843      0.686613      0.933663     Biso  1.000000 H
   H925       1.0     0.672675      0.717488      0.899356     Biso  1.000000 H
   H926       1.0     0.674719      0.775568      0.827089     Biso  1.000000 H
   H927       1.0     0.640985      0.818833      0.014204     Biso  1.000000 H
   H928       1.0     0.416847      0.951890      0.211352     Biso  1.000000 H
   H929       1.0     0.425702      0.995696      0.115877     Biso  1.000000 H
   H930       1.0     0.472451      0.980438      0.051466     Biso  1.000000 H
   H931       1.0     0.488662      0.865278      0.148302     Biso  1.000000 H
   H932       1.0     0.448447      0.888800      0.224338     Biso  1.000000 H
   H933       1.0     0.512646      0.024499      0.763183     Biso  1.000000 H
   H934       1.0     0.603275      0.868974      0.963852     Biso  1.000000 H
   H935       1.0     0.530405      0.949321      0.752096     Biso  1.000000 H
   H936       1.0     0.461679      0.998216      0.934179     Biso  1.000000 H
   H937       1.0     0.477654      0.045964      0.844231     Biso  1.000000 H
   H938       1.0     0.341434      0.888088      0.706387     Biso  1.000000 H
   H939       1.0     0.337812      0.832918      0.783060     Biso  1.000000 H
   H940       1.0     0.368359      0.846438      0.885836     Biso  1.000000 H
   H941       1.0     0.415822      0.951200      0.809087     Biso  1.000000 H
   H942       1.0     0.381436      0.947881      0.716604     Biso  1.000000 H
   H943       1.0     0.514826      0.901525      0.833888     Biso  1.000000 H
   H944       1.0     0.602253      0.942942      0.125694     Biso  1.000000 H
   H945       1.0     0.639893      0.893119      0.173752     Biso  1.000000 H
   H946       1.0     0.657982      0.832500      0.119651     Biso  1.000000 H
   H947       1.0     0.569090      0.766134      0.795702     Biso  1.000000 H
   H948       1.0     0.566697      0.711873      0.883504     Biso  1.000000 H
   H949       1.0     0.520725      0.879513      0.561798     Biso  1.000000 H
   H950       1.0     0.505950      0.861293      0.671870     Biso  1.000000 H
   H951       1.0     0.554061      0.860704      0.757312     Biso  1.000000 H
   H952       1.0     0.625185      0.901912      0.620011     Biso  1.000000 H
   H953       1.0     0.580606      0.896125      0.536091     Biso  1.000000 H
   H954       1.0     0.758557      0.967329      0.816323     Biso  1.000000 H
   H955       1.0     0.739487      0.902716      0.863259     Biso  1.000000 H
   H956       1.0     0.682435      0.888226      0.879896     Biso  1.000000 H
   H957       1.0     0.653902      0.999825      0.778704     Biso  1.000000 H
   H958       1.0     0.716468      0.013484      0.766211     Biso  1.000000 H
   H959       1.0     0.684777      0.129340      0.927157     Biso  1.000000 H
   H960       1.0     0.623872      0.131219      0.923520     Biso  1.000000 H
   H961       1.0     0.596163      0.060623      0.923302     Biso  1.000000 H
   H962       1.0     0.689855      0.000750      0.960206     Biso  1.000000 H
   H963       1.0     0.718998      0.067493      0.950049     Biso  1.000000 H
   H964       1.0     0.344265      0.695037      0.033288     Biso  1.000000 H
   H965       1.0     0.087399      0.199271      0.624483     Biso  1.000000 H
   H966       1.0     0.167997      0.384788      0.753727     Biso  1.000000 H
   H967       1.0     0.132695      0.326229      0.775081     Biso  1.000000 H
   H968       1.0     0.629020      0.141507      0.687642     Biso  1.000000 H
   H969       1.0     0.633915      0.133316      0.808052     Biso  1.000000 H
   H970       1.0     0.646366      0.194638      0.866929     Biso  1.000000 H
   H971       1.0     0.628113      0.270423      0.706953     Biso  1.000000 H
   H972       1.0     0.626277      0.208032      0.642661     Biso  1.000000 H
   H973       1.0     0.685537      0.235938      0.551636     Biso  1.000000 H
   H974       1.0     0.714098      0.201484      0.641807     Biso  1.000000 H
   H975       1.0     0.598893      0.190675      0.056807     Biso  1.000000 H
   H976       1.0     0.722042      0.234637      0.738744     Biso  1.000000 H
   H977       1.0     0.665861      0.308589      0.561259     Biso  1.000000 H
   H978       1.0     0.768640      0.524041      0.686430     Biso  1.000000 H
   H979       1.0     0.740106      0.485651      0.610629     Biso  1.000000 H
   H980       1.0     0.727227      0.411033      0.625231     Biso  1.000000 H
   H981       1.0     0.768808      0.415183      0.808019     Biso  1.000000 H
   H982       1.0     0.785612      0.490578      0.793083     Biso  1.000000 H
   H983       1.0     0.915407      0.327186      0.812868     Biso  1.000000 H
   H984       1.0     0.672537      0.343687      0.663951     Biso  1.000000 H
   H985       1.0     0.896681      0.390599      0.771241     Biso  1.000000 H
   H986       1.0     0.587194      0.243896      0.981649     Biso  1.000000 H
   H987       1.0     0.704440      0.232924      0.050026     Biso  1.000000 H
   H988       1.0     0.559387      0.644552      0.987208     Biso  1.000000 H
   H989       1.0     0.563841      0.588009      0.906958     Biso  1.000000 H
   H990       1.0     0.590899      0.521462      0.935879     Biso  1.000000 H
   H991       1.0     0.618707      0.572936      0.110544     Biso  1.000000 H
   H992       1.0     0.584839      0.634313      0.093285     Biso  1.000000 H
   H993       1.0     0.760924      0.396503      0.959184     Biso  1.000000 H
   H994       1.0     0.732348      0.437180      0.872297     Biso  1.000000 H
   H995       1.0     0.686080      0.293911      0.981199     Biso  1.000000 H
   H996       1.0     0.673093      0.446015      0.873096     Biso  1.000000 H
   H997       1.0     0.729875      0.380576      0.052139     Biso  1.000000 H
   H998       1.0     0.500283      0.398096      0.150246     Biso  1.000000 H
   H999       1.0     0.558641      0.403416      0.188660     Biso  1.000000 H
   H1000      1.0     0.604405      0.384297      0.122938     Biso  1.000000 H
   H1001      1.0     0.536688      0.380674      0.963954     Biso  1.000000 H
   H1002      1.0     0.490270      0.390915      0.044861     Biso  1.000000 H
   H1003      1.0     0.661234      0.187789      0.096133     Biso  1.000000 H
   H1004      1.0     0.664443      0.394277      0.058987     Biso  1.000000 H
   H1005      1.0     0.780985      0.503930      0.906206     Biso  1.000000 H
   H1006      1.0     0.839465      0.394056      0.714226     Biso  1.000000 H
   H1007      1.0     0.884503      0.261063      0.783084     Biso  1.000000 H
   H1008      1.0     0.000533      0.246441      0.198139     Biso  1.000000 H
   H1009      1.0     0.962922      0.222154      0.273689     Biso  1.000000 H
   H1010      1.0     0.958879      0.258254      0.375847     Biso  1.000000 H
   H1011      1.0     0.018963      0.358561      0.307890     Biso  1.000000 H
   H1012      1.0     0.028330      0.321261      0.210893     Biso  1.000000 H
   H1013      1.0     0.026704      0.183559      0.582823     Biso  1.000000 H
   H1014      1.0     0.066990      0.218387      0.511732     Biso  1.000000 H
   H1015      1.0     0.910409      0.339540      0.661945     Biso  1.000000 H
   H1016      1.0     0.056395      0.288330      0.474591     Biso  1.000000 H
   H1017      1.0     0.972654      0.219600      0.601921     Biso  1.000000 H
   H1018      1.0     0.924217      0.484641      0.630446     Biso  1.000000 H
   H1019      1.0     0.942590      0.494207      0.523840     Biso  1.000000 H
   H1020      1.0     0.995752      0.467274      0.478274     Biso  1.000000 H
   H1021      1.0     0.009739      0.406139      0.664875     Biso  1.000000 H
   H1022      1.0     0.959034      0.441131      0.701756     Biso  1.000000 H
   H1023      1.0     0.069575      0.531694      0.344692     Biso  1.000000 H
   H1024      1.0     0.965680      0.290795      0.583190     Biso  1.000000 H
   H1025      1.0     0.830074      0.262503      0.719242     Biso  1.000000 H
   H1026      1.0     0.927862      0.390369      0.582052     Biso  1.000000 H
   H1027      1.0     0.890518      0.253446      0.514616     Biso  1.000000 H
   H1028      1.0     0.782228      0.151419      0.450895     Biso  1.000000 H
   H1029      1.0     0.736516      0.208646      0.444760     Biso  1.000000 H
   H1030      1.0     0.748103      0.273376      0.502722     Biso  1.000000 H
   H1031      1.0     0.837036      0.228003      0.582280     Biso  1.000000 H
   H1032      1.0     0.831231      0.161161      0.515549     Biso  1.000000 H
   H1033      1.0     0.711229      0.366998      0.306934     Biso  1.000000 H
   H1034      1.0     0.753151      0.299965      0.300510     Biso  1.000000 H
   H1035      1.0     0.910684      0.301080      0.440222     Biso  1.000000 H
   H1036      1.0     0.800052      0.295689      0.373120     Biso  1.000000 H
   H1037      1.0     0.725243      0.417658      0.378666     Biso  1.000000 H
   H1038      1.0     0.825998      0.515285      0.266458     Biso  1.000000 H
   H1039      1.0     0.827626      0.527292      0.380589     Biso  1.000000 H
   H1040      1.0     0.845593      0.475265      0.456069     Biso  1.000000 H
   H1041      1.0     0.859076      0.389206      0.305824     Biso  1.000000 H
   H1042      1.0     0.839591      0.439418      0.238369     Biso  1.000000 H
   H1043      1.0     0.888038      0.273855      0.627497     Biso  1.000000 H
   H1044      1.0     0.774334      0.418370      0.446060     Biso  1.000000 H
   H1045      1.0     0.742957      0.503767      0.998852     Biso  1.000000 H
   H1046      1.0     0.687703      0.601710      0.908584     Biso  1.000000 H
   H1047      1.0     0.725231      0.604845      0.826857     Biso  1.000000 H
   H1048      1.0     0.809982      0.043947      0.123483     Biso  1.000000 H
   H1049      1.0     0.953490      0.313688      0.985722     Biso  1.000000 H
   H1050      1.0     0.956797      0.244927      0.033034     Biso  1.000000 H
   H1051      1.0     0.915136      0.192443      0.008350     Biso  1.000000 H
   H1052      1.0     0.859970      0.274205      0.895789     Biso  1.000000 H
   H1053      1.0     0.905574      0.325915      0.913265     Biso  1.000000 H
   H1054      1.0     0.716119      0.230738      0.900702     Biso  1.000000 H
   H1055      1.0     0.810751      0.102012      0.051052     Biso  1.000000 H
   H1056      1.0     0.756475      0.263767      0.829467     Biso  1.000000 H
   H1057      1.0     0.781960      0.130169      0.933445     Biso  1.000000 H
   H1058      1.0     0.726616      0.165704      0.952455     Biso  1.000000 H
   H1059      1.0     0.821967      0.959344      0.796826     Biso  1.000000 H
   H1060      1.0     0.791304      0.005440      0.730365     Biso  1.000000 H
   H1061      1.0     0.803213      0.076430      0.724597     Biso  1.000000 H
   H1062      1.0     0.885645      0.061940      0.849860     Biso  1.000000 H
   H1063      1.0     0.875685      0.985377      0.851718     Biso  1.000000 H
   H1064      1.0     0.808141      0.228641      0.805562     Biso  1.000000 H
   H1065      1.0     0.015491      0.175724      0.769206     Biso  1.000000 H
   H1066      1.0     0.880991      0.162542      0.157573     Biso  1.000000 H
   H1067      1.0     0.846152      0.049927      0.226200     Biso  1.000000 H
   H1068      1.0     0.854717      0.432249      0.854909     Biso  1.000000 H
   H1069      1.0     0.743621      0.502588      0.222448     Biso  1.000000 H
   H1070      1.0     0.765005      0.504215      0.117450     Biso  1.000000 H
   H1071      1.0     0.789222      0.440139      0.066809     Biso  1.000000 H
   H1072      1.0     0.783465      0.380241      0.242456     Biso  1.000000 H
   H1073      1.0     0.752637      0.434828      0.283716     Biso  1.000000 H
   H1074      1.0     0.919468      0.291790      0.260648     Biso  1.000000 H
   H1075      1.0     0.876815      0.110420      0.237960     Biso  1.000000 H
   H1076      1.0     0.922529      0.274512      0.149791     Biso  1.000000 H
   H1077      1.0     0.813181      0.291922      0.250453     Biso  1.000000 H
   H1078      1.0     0.864530      0.304263      0.308155     Biso  1.000000 H
   H1079      1.0     0.712279      0.081222      0.200749     Biso  1.000000 H
   H1080      1.0     0.702451      0.119836      0.103974     Biso  1.000000 H
   H1081      1.0     0.735822      0.173069      0.069919     Biso  1.000000 H
   H1082      1.0     0.801748      0.154296      0.227979     Biso  1.000000 H
   H1083      1.0     0.763895      0.104532      0.270601     Biso  1.000000 H
   H1084      1.0     0.873027      0.272541      0.087322     Biso  1.000000 H
   H1085      1.0     0.968867      0.220088      0.793506     Biso  1.000000 H
   H1086      1.0     0.917333      0.212917      0.740360     Biso  1.000000 H
   H1087      1.0     0.947530      0.098564      0.664898     Biso  1.000000 H
   H1088      1.0     0.727485      0.825421      0.839555     Biso  1.000000 H
   H1089      1.0     0.699808      0.849910      0.941963     Biso  1.000000 H
   H1090      1.0     0.711112      0.808573      0.036964     Biso  1.000000 H
   H1091      1.0     0.763194      0.717816      0.930245     Biso  1.000000 H
   H1092      1.0     0.757131      0.758797      0.839322     Biso  1.000000 H
   H1093      1.0     0.619413      0.784864      0.205519     Biso  1.000000 H
   H1094      1.0     0.605740      0.747868      0.114195     Biso  1.000000 H
   H1095      1.0     0.755167      0.835856      0.226995     Biso  1.000000 H
   H1096      1.0     0.644763      0.700391      0.064760     Biso  1.000000 H
   H1097      1.0     0.676410      0.773434      0.260429     Biso  1.000000 H
   H1098      1.0     0.807179      0.589916      0.284158     Biso  1.000000 H
   H1099      1.0     0.748346      0.592584      0.307003     Biso  1.000000 H
   H1100      1.0     0.704230      0.596120      0.220841     Biso  1.000000 H
   H1101      1.0     0.787987      0.599261      0.090168     Biso  1.000000 H
   H1102      1.0     0.827917      0.590490      0.177596     Biso  1.000000 H
   H1103      1.0     0.776448      0.553122      0.820833     Biso  1.000000 H
   H1104      1.0     0.715696      0.725393      0.210716     Biso  1.000000 H
   H1105      1.0     0.775775      0.795090      0.129592     Biso  1.000000 H
   H1106      1.0     0.794631      0.694681      0.245860     Biso  1.000000 H
   H1107      1.0     0.775083      0.734148      0.340684     Biso  1.000000 H
   H1108      1.0     0.007016      0.111584      0.704422     Biso  1.000000 H
   H1109      1.0     0.820524      0.578652      0.449228     Biso  1.000000 H
   H1110      1.0     0.790069      0.638332      0.402951     Biso  1.000000 H
   H1111      1.0     0.815459      0.691635      0.349536     Biso  1.000000 H
   H1112      1.0     0.914608      0.637739      0.396198     Biso  1.000000 H
   H1113      1.0     0.883265      0.581200      0.445819     Biso  1.000000 H
   H1114      1.0     0.018953      0.789229      0.311253     Biso  1.000000 H
   H1115      1.0     0.969182      0.826133      0.347711     Biso  1.000000 H
   H1116      1.0     0.908560      0.805921      0.313872     Biso  1.000000 H
   H1117      1.0     0.953896      0.707504      0.207265     Biso  1.000000 H
   H1118      1.0     0.011323      0.726231      0.245131     Biso  1.000000 H
   H1119      1.0     0.867077      0.803974      0.893652     Biso  1.000000 H
   H1120      1.0     0.837469      0.840958      0.970526     Biso  1.000000 H
   H1121      1.0     0.832657      0.815287      0.078971     Biso  1.000000 H
   H1122      1.0     0.891362      0.707713      0.021693     Biso  1.000000 H
   H1123      1.0     0.896210      0.736230      0.916149     Biso  1.000000 H
   H1124      1.0     0.759990      0.805159      0.331762     Biso  1.000000 H
   H1125      1.0     0.075680      0.560684      0.452776     Biso  1.000000 H
   H1126      1.0     0.094018      0.514616      0.537828     Biso  1.000000 H
   H1127      1.0     0.090268      0.409876      0.407057     Biso  1.000000 H
   H1128      1.0     0.084180      0.464168      0.321169     Biso  1.000000 H
   H1129      1.0     0.339710      0.508958      0.713609     Biso  1.000000 H
   H1130      1.0     0.314656      0.505753      0.609189     Biso  1.000000 H
   H1131      1.0     0.357454      0.381239      0.587644     Biso  1.000000 H
   H1132      1.0     0.385034      0.386363      0.683885     Biso  1.000000 H
   H1133      1.0     0.316959      0.285143      0.379158     Biso  1.000000 H
   H1134      1.0     0.294224      0.289423      0.485101     Biso  1.000000 H
   H1135      1.0     0.267482      0.353385      0.522525     Biso  1.000000 H
   H1136      1.0     0.378042      0.453140      0.750373     Biso  1.000000 H
   H1137      1.0     0.299182      0.410747      0.349717     Biso  1.000000 H
   H1138      1.0     0.155507      0.277333      0.321647     Biso  1.000000 H
   H1139      1.0     0.132399      0.319754      0.406351     Biso  1.000000 H
   H1140      1.0     0.157701      0.386056      0.436275     Biso  1.000000 H
   H1141      1.0     0.236423      0.363449      0.311513     Biso  1.000000 H
   H1142      1.0     0.212762      0.298271      0.280586     Biso  1.000000 H
   H1143      1.0     0.092998      0.511583      0.168315     Biso  1.000000 H
   H1144      1.0     0.103628      0.444492      0.195543     Biso  1.000000 H
   H1145      1.0     0.326117      0.345474      0.324364     Biso  1.000000 H
   H1146      1.0     0.153778      0.426370      0.258144     Biso  1.000000 H
   H1147      1.0     0.436216      0.592332      0.442396     Biso  1.000000 H
   H1148      1.0     0.355911      0.496350      0.355374     Biso  1.000000 H
   H1149      1.0     0.591894      0.318845      0.574101     Biso  1.000000 H
   H1150      1.0     0.541598      0.366356      0.585429     Biso  1.000000 H
   H1151      1.0     0.478218      0.267025      0.617633     Biso  1.000000 H
   H1152      1.0     0.526772      0.216005      0.615264     Biso  1.000000 H
   H1153      1.0     0.508633      0.523556      0.612371     Biso  1.000000 H
   H1154      1.0     0.531157      0.496537      0.515689     Biso  1.000000 H
   H1155      1.0     0.498459      0.436354      0.462701     Biso  1.000000 H
   H1156      1.0     0.416248      0.533349      0.505597     Biso  1.000000 H
   H1157      1.0     0.424690      0.444624      0.615552     Biso  1.000000 H
   H1158      1.0     0.422185      0.398065      0.152497     Biso  1.000000 H
   H1159      1.0     0.386078      0.352415      0.226679     Biso  1.000000 H
   H1160      1.0     0.380890      0.368305      0.335868     Biso  1.000000 H
   H1161      1.0     0.453134      0.467566      0.315168     Biso  1.000000 H
   H1162      1.0     0.447996      0.459848      0.201465     Biso  1.000000 H
   H1163      1.0     0.415606      0.605450      0.340851     Biso  1.000000 H
   H1164      1.0     0.371944      0.559364      0.292754     Biso  1.000000 H
   H1165      1.0     0.454088      0.499767      0.656000     Biso  1.000000 H
   H1166      1.0     0.176152      0.554452      0.283270     Biso  1.000000 H
   H1167      1.0     0.125510      0.573089      0.208882     Biso  1.000000 H
   H1168      1.0     0.304140      0.666483      0.273754     Biso  1.000000 H
   H1169      1.0     0.183935      0.466485      0.151507     Biso  1.000000 H
   H1170      1.0     0.218694      0.459603      0.956904     Biso  1.000000 H
   H1171      1.0     0.221114      0.531280      0.954819     Biso  1.000000 H
   H1172      1.0     0.101072      0.319186      0.258019     Biso  1.000000 H
   H1173      1.0     0.147162      0.278322      0.205264     Biso  1.000000 H
   H1174      1.0     0.165126      0.296901      0.100027     Biso  1.000000 H
   H1175      1.0     0.089581      0.390906      0.096382     Biso  1.000000 H
   H1176      1.0     0.188895      0.542049      0.146078     Biso  1.000000 H
   H1177      1.0     0.072599      0.374316      0.198720     Biso  1.000000 H
   H1178      1.0     0.021323      0.355332      0.824121     Biso  1.000000 H
   H1179      1.0     0.072208      0.360833      0.872441     Biso  1.000000 H
   H1180      1.0     0.056147      0.244215      0.967544     Biso  1.000000 H
   H1181      1.0     0.000991      0.237848      0.905760     Biso  1.000000 H
   H1182      1.0     0.220816      0.393752      0.811229     Biso  1.000000 H
   H1183      1.0     0.237758      0.336491      0.890359     Biso  1.000000 H
   H1184      1.0     0.197591      0.286654      0.925002     Biso  1.000000 H
   H1185      1.0     0.983309      0.297162      0.841110     Biso  1.000000 H
   H1186      1.0     0.207739      0.575202      0.054933     Biso  1.000000 H
   H1187      1.0     0.319592      0.313169      0.918467     Biso  1.000000 H
   H1188      1.0     0.276310      0.319760      0.993339     Biso  1.000000 H
   H1189      1.0     0.328395      0.611663      0.345514     Biso  1.000000 H
   H1190      1.0     0.309145      0.538242      0.329152     Biso  1.000000 H
   H1191      1.0     0.237590      0.579094      0.191337     Biso  1.000000 H
   H1192      1.0     0.258589      0.649074      0.201571     Biso  1.000000 H
   H1193      1.0     0.356525      0.552076      0.054040     Biso  1.000000 H
   H1194      1.0     0.384187      0.507239      0.127932     Biso  1.000000 H
   H1195      1.0     0.350803      0.465669      0.205301     Biso  1.000000 H
   H1196      1.0     0.260989      0.502567      0.106345     Biso  1.000000 H
   H1197      1.0     0.295680      0.550442      0.038285     Biso  1.000000 H
   H1198      1.0     0.378615      0.257142      0.174117     Biso  1.000000 H
   H1199      1.0     0.340667      0.272999      0.254252     Biso  1.000000 H
   H1200      1.0     0.295570      0.326717      0.234054     Biso  1.000000 H
   H1201      1.0     0.348020      0.363587      0.069290     Biso  1.000000 H
   H1202      1.0     0.385154      0.306569      0.076401     Biso  1.000000 H
   H1203      1.0     0.350718      0.376499      0.872093     Biso  1.000000 H
   H1204      1.0     0.338205      0.446224      0.925327     Biso  1.000000 H
   H1205      1.0     0.294189      0.453714      0.003575     Biso  1.000000 H
   H1206      1.0     0.585022      0.245160      0.592442     Biso  1.000000 H
   H1207      1.0     0.846174      0.492902      0.064900     Biso  1.000000 H
   H1208      1.0     0.160284      0.954085      0.411283     Biso  1.000000 H
   H1209      1.0     0.255685      0.860968      0.448225     Biso  1.000000 H
   H1210      1.0     0.305873      0.646541      0.741335     Biso  1.000000 H
   H1211      1.0     0.289605      0.575343      0.781249     Biso  1.000000 H
   H1212      1.0     0.235847      0.554657      0.786906     Biso  1.000000 H
   H1213      1.0     0.204903      0.661541      0.687902     Biso  1.000000 H
   H1214      1.0     0.262690      0.686466      0.687581     Biso  1.000000 H
   H1215      1.0     0.102009      0.417090      0.834237     Biso  1.000000 H
   H1216      1.0     0.130152      0.455001      0.917859     Biso  1.000000 H
   H1217      1.0     0.129679      0.724205      0.537095     Biso  1.000000 H
   H1218      1.0     0.150747      0.525846      0.903201     Biso  1.000000 H
   H1219      1.0     0.091954      0.451599      0.731629     Biso  1.000000 H
   H1220      1.0     0.009584      0.648187      0.676495     Biso  1.000000 H
   H1221      1.0     0.063623      0.681959      0.651643     Biso  1.000000 H
   H1222      1.0     0.106478      0.685004      0.730519     Biso  1.000000 H
   H1223      1.0     0.038128      0.618165      0.858852     Biso  1.000000 H
   H1224      1.0     0.999710      0.615719      0.771854     Biso  1.000000 H
   H1225      1.0     0.989316      0.685115      0.123944     Biso  1.000000 H
   H1226      1.0     0.101436      0.528723      0.720970     Biso  1.000000 H
   H1227      1.0     0.052219      0.690583      0.141691     Biso  1.000000 H
   H1228      1.0     0.174010      0.678171      0.577830     Biso  1.000000 H
   H1229      1.0     0.061526      0.622083      0.532246     Biso  1.000000 H
   H1230      1.0     0.128874      0.245219      0.591141     Biso  1.000000 H
   H1231      1.0     0.089741      0.284186      0.658805     Biso  1.000000 H
   H1232      1.0     0.099003      0.362009      0.670945     Biso  1.000000 H
   H1233      1.0     0.185110      0.353966      0.544883     Biso  1.000000 H
   H1234      1.0     0.177079      0.280468      0.538014     Biso  1.000000 H
   H1235      1.0     0.267630      0.464763      0.859112     Biso  1.000000 H
   H1236      1.0     0.293100      0.439037      0.759397     Biso  1.000000 H
   H1237      1.0     0.103119      0.577289      0.571477     Biso  1.000000 H
   H1238      1.0     0.256805      0.433204      0.665976     Biso  1.000000 H
   H1239      1.0     0.209728      0.494060      0.859084     Biso  1.000000 H
   H1240      1.0     0.307407      0.598211      0.455892     Biso  1.000000 H
   H1241      1.0     0.313424      0.597548      0.572531     Biso  1.000000 H
   H1242      1.0     0.267520      0.564389      0.637873     Biso  1.000000 H
   H1243      1.0     0.210352      0.540143      0.473081     Biso  1.000000 H
   H1244      1.0     0.256775      0.574983      0.407953     Biso  1.000000 H
   H1245      1.0     0.069858      0.690346      0.507199     Biso  1.000000 H
   H1246      1.0     0.176104      0.489194      0.760619     Biso  1.000000 H
   H1247      1.0     0.089436      0.691286      0.058315     Biso  1.000000 H
   H1248      1.0     0.005180      0.705487      0.934490     Biso  1.000000 H
   H1249      1.0     0.966299      0.694828      0.018106     Biso  1.000000 H
   H1250      1.0     0.051044      0.871691      0.361681     Biso  1.000000 H
   H1251      1.0     0.102773      0.843862      0.336026     Biso  1.000000 H
   H1252      1.0     0.076166      0.832141      0.147706     Biso  1.000000 H
   H1253      1.0     0.021842      0.866202      0.164033     Biso  1.000000 H
   H1254      1.0     0.056734      0.625383      0.380431     Biso  1.000000 H
   H1255      1.0     0.108042      0.608286      0.316218     Biso  1.000000 H
   H1256      1.0     0.148244      0.666778      0.292058     Biso  1.000000 H
   H1257      1.0     0.004346      0.882985      0.279597     Biso  1.000000 H
   H1258      1.0     0.072443      0.752503      0.365453     Biso  1.000000 H
   H1259      1.0     0.308083      0.697646      0.424018     Biso  1.000000 H
   H1260      1.0     0.298443      0.753154      0.341599     Biso  1.000000 H
   H1261      1.0     0.240662      0.772473      0.318990     Biso  1.000000 H
   H1262      1.0     0.205069      0.699918      0.473374     Biso  1.000000 H
   H1263      1.0     0.263203      0.671957      0.487878     Biso  1.000000 H
   H1264      1.0     0.217276      0.983886      0.420154     Biso  1.000000 H
   H1265      1.0     0.266993      0.936694      0.443868     Biso  1.000000 H
   H1266      1.0     0.037517      0.688691      0.394429     Biso  1.000000 H
   H1267      1.0     0.196055      0.931644      0.290390     Biso  1.000000 H
   H1268      1.0     0.161627      0.890568      0.218528     Biso  1.000000 H
   H1269      1.0     0.240567      0.803910      0.192695     Biso  1.000000 H
   H1270      1.0     0.055794      0.809982      0.669245     Biso  1.000000 H
   H1271      1.0     0.118330      0.790924      0.664401     Biso  1.000000 H
   H1272      1.0     0.145975      0.763515      0.764014     Biso  1.000000 H
   H1273      1.0     0.052237      0.783053      0.864931     Biso  1.000000 H
   H1274      1.0     0.025529      0.799124      0.765533     Biso  1.000000 H
   H1275      1.0     0.276994      0.719207      0.791383     Biso  1.000000 H
   H1276      1.0     0.237939      0.663131      0.832165     Biso  1.000000 H
   H1277      1.0     0.191032      0.686060      0.895556     Biso  1.000000 H
   H1278      1.0     0.212800      0.813015      0.861142     Biso  1.000000 H
   H1279      1.0     0.262509      0.790783      0.795990     Biso  1.000000 H
   H1280      1.0     0.190844      0.637429      0.125471     Biso  1.000000 H
   H1281      1.0     0.238778      0.673001      0.086567     Biso  1.000000 H
   H1282      1.0     0.234867      0.744620      0.055093     Biso  1.000000 H
   H1283      1.0     0.125891      0.738839      0.082294     Biso  1.000000 H
   H1284      1.0     0.133704      0.670892      0.125490     Biso  1.000000 H
   H1285      1.0     0.252474      0.906154      0.322427     Biso  1.000000 H
   H1286      1.0     0.270005      0.835616      0.284255     Biso  1.000000 H
   H1287      1.0     0.151180      0.882319      0.421761     Biso  1.000000 H
   H1288      1.0     0.296760      0.164574      0.861044     Biso  1.000000 H

# Number_of_total_atoms: 2568
# Number_of_atom_type: 2
# Name_of_each_atom:  C  H
# Number_of_each_atom: 1280 1288 
# Created_by: Lihua Chen (lihua.chen@mse.gatech.edu)
# Tool: VASP
# K-points: 1 1 1
# Pseudopotential: PBE-HSE06
# Material_class: MC_Pol
# Geometry_class: GC_PD
# Bandgap_(eV): 4.75

# Note: average bandgap of 5 configurations
# Note:  HSE06 Band gap is derived from PBE band gap, based on Eg (HSE06)=1.140*Eg (PBE) + 0.799, R2=0.97

