#======================================================================

# Note: Amorphous region of syndiotactic polystyrene
# Common_name: Amorphous region
#----------------------------------------------------------------------

data_VESTA_phase_1


_chemical_name_common                  'C  H                                  '
_cell_length_a                         53.06857
_cell_length_b                         32.97783
_cell_length_c                         15.67227
_cell_angle_alpha                      90
_cell_angle_beta                       90
_cell_angle_gamma                      90
_space_group_name_H-M_alt              'P 1'
_space_group_IT_number                 1

loop_
_space_group_symop_operation_xyz
   'x, y, z'

loop_
   _atom_site_label
   _atom_site_occupancy
   _atom_site_fract_x
   _atom_site_fract_y
   _atom_site_fract_z
   _atom_site_adp_type
   _atom_site_B_iso_or_equiv
   _atom_site_type_symbol
   C1         1.0     0.158985      0.808586      0.797079     Biso  1.000000 C
   C2         1.0     0.814141      0.029918      0.786474     Biso  1.000000 C
   C3         1.0     0.800803      0.038593      0.862347     Biso  1.000000 C
   C4         1.0     0.775304      0.049012      0.860261     Biso  1.000000 C
   C5         1.0     0.800400      0.028207      0.709536     Biso  1.000000 C
   C6         1.0     0.774735      0.040191      0.705273     Biso  1.000000 C
   C7         1.0     0.763606      0.055623      0.782237     Biso  1.000000 C
   C8         1.0     0.643840      0.130882      0.000461     Biso  1.000000 C
   C9         1.0     0.708248      0.128299      0.628603     Biso  1.000000 C
   C10        1.0     0.663027      0.105981      0.034653     Biso  1.000000 C
   C11        1.0     0.636348      0.130045      0.910853     Biso  1.000000 C
   C12        1.0     0.651233      0.103807      0.861122     Biso  1.000000 C
   C13        1.0     0.671846      0.080081      0.891456     Biso  1.000000 C
   C14        1.0     0.654069      0.918457      0.567450     Biso  1.000000 C
   C15        1.0     0.650652      0.959566      0.549227     Biso  1.000000 C
   C16        1.0     0.650671      0.990511      0.607923     Biso  1.000000 C
   C17        1.0     0.655929      0.906270      0.655070     Biso  1.000000 C
   C18        1.0     0.677088      0.079675      0.980562     Biso  1.000000 C
   C19        1.0     0.656839      0.938316      0.718564     Biso  1.000000 C
   C20        1.0     0.699983      0.093242      0.585233     Biso  1.000000 C
   C21        1.0     0.691053      0.159932      0.634977     Biso  1.000000 C
   C22        1.0     0.888675      0.211870      0.591308     Biso  1.000000 C
   C23        1.0     0.866912      0.234731      0.611509     Biso  1.000000 C
   C24        1.0     0.843499      0.105065      0.399045     Biso  1.000000 C
   C25        1.0     0.828982      0.139161      0.370893     Biso  1.000000 C
   C26        1.0     0.823093      0.171494      0.425378     Biso  1.000000 C
   C27        1.0     0.850633      0.102942      0.485203     Biso  1.000000 C
   C28        1.0     0.843872      0.133808      0.543829     Biso  1.000000 C
   C29        1.0     0.674911      0.089697      0.558115     Biso  1.000000 C
   C30        1.0     0.828784      0.168138      0.514459     Biso  1.000000 C
   C31        1.0     0.799377      0.219721      0.863572     Biso  1.000000 C
   C32        1.0     0.788073      0.214660      0.785058     Biso  1.000000 C
   C33        1.0     0.816020      0.153030      0.857140     Biso  1.000000 C
   C34        1.0     0.804632      0.145886      0.775455     Biso  1.000000 C
   C35        1.0     0.789590      0.175897      0.739231     Biso  1.000000 C
   C36        1.0     0.657788      0.120724      0.568178     Biso  1.000000 C
   C37        1.0     0.665669      0.157494      0.605977     Biso  1.000000 C
   C38        1.0     0.812062      0.187702      0.906533     Biso  1.000000 C
   C39        1.0     0.902055      0.188591      0.654617     Biso  1.000000 C
   C40        1.0     0.653436      0.979701      0.695147     Biso  1.000000 C
   C41        1.0     0.595105      0.119059      0.714653     Biso  1.000000 C
   C42        1.0     0.479875      0.878460      0.000470     Biso  1.000000 C
   C43        1.0     0.468324      0.916610      0.984901     Biso  1.000000 C
   C44        1.0     0.424364      0.042765      0.168204     Biso  1.000000 C
   C45        1.0     0.446703      0.059853      0.146139     Biso  1.000000 C
   C46        1.0     0.467013      0.033914      0.129562     Biso  1.000000 C
   C47        1.0     0.421110      0.000339      0.179644     Biso  1.000000 C
   C48        1.0     0.442067      0.975759      0.176524     Biso  1.000000 C
   C49        1.0     0.465584      0.845244      0.027576     Biso  1.000000 C
   C50        1.0     0.465759      0.992125      0.148723     Biso  1.000000 C
   C51        1.0     0.595358      0.959178      0.265280     Biso  1.000000 C
   C52        1.0     0.574272      0.946342      0.219485     Biso  1.000000 C
   C53        1.0     0.568604      0.975410      0.388185     Biso  1.000000 C
   C54        1.0     0.548400      0.959563      0.343820     Biso  1.000000 C
   C55        1.0     0.550375      0.946524      0.258803     Biso  1.000000 C
   C56        1.0     0.527387      0.797430      0.003474     Biso  1.000000 C
   C57        1.0     0.544955      0.827763      0.014357     Biso  1.000000 C
   C58        1.0     0.593112      0.969791      0.352012     Biso  1.000000 C
   C59        1.0     0.590982      0.115041      0.626580     Biso  1.000000 C
   C60        1.0     0.441365      0.919712      0.997267     Biso  1.000000 C
   C61        1.0     0.440110      0.849632      0.041006     Biso  1.000000 C
   C62        1.0     0.598887      0.084439      0.767830     Biso  1.000000 C
   C63        1.0     0.593202      0.076333      0.588098     Biso  1.000000 C
   C64        1.0     0.594985      0.041804      0.639737     Biso  1.000000 C
   C65        1.0     0.597630      0.045692      0.727969     Biso  1.000000 C
   C66        1.0     0.551571      0.869836      0.676356     Biso  1.000000 C
   C67        1.0     0.556312      0.870977      0.764129     Biso  1.000000 C
   C68        1.0     0.557424      0.907174      0.805737     Biso  1.000000 C
   C69        1.0     0.427991      0.886626      0.026807     Biso  1.000000 C
   C70        1.0     0.550344      0.906100      0.631194     Biso  1.000000 C
   C71        1.0     0.556638      0.944056      0.761360     Biso  1.000000 C
   C72        1.0     0.463125      0.092041      0.823355     Biso  1.000000 C
   C73        1.0     0.466089      0.067716      0.752044     Biso  1.000000 C
   C74        1.0     0.482809      0.033317      0.757499     Biso  1.000000 C
   C75        1.0     0.478963      0.087826      0.897358     Biso  1.000000 C
   C76        1.0     0.494558      0.053385      0.901288     Biso  1.000000 C
   C77        1.0     0.496601      0.025536      0.832766     Biso  1.000000 C
   C78        1.0     0.552636      0.943455      0.671660     Biso  1.000000 C
   C79        1.0     0.547028      0.844923      0.096389     Biso  1.000000 C
   C80        1.0     0.861926      0.239049      0.700654     Biso  1.000000 C
   C81        1.0     0.894855      0.190562      0.739410     Biso  1.000000 C
   C82        1.0     0.912210      0.997334      0.704335     Biso  1.000000 C
   C83        1.0     0.909736      0.983913      0.791400     Biso  1.000000 C
   C84        1.0     0.012186      0.908196      0.719974     Biso  1.000000 C
   C85        1.0     0.996933      0.941033      0.694560     Biso  1.000000 C
   C86        1.0     0.982662      0.960142      0.757085     Biso  1.000000 C
   C87        1.0     0.011775      0.897052      0.806880     Biso  1.000000 C
   C88        1.0     0.996948      0.916355      0.868536     Biso  1.000000 C
   C89        1.0     0.899513      0.030585      0.676362     Biso  1.000000 C
   C90        1.0     0.981211      0.948438      0.843256     Biso  1.000000 C
   C91        1.0     0.920707      0.050004      0.213105     Biso  1.000000 C
   C92        1.0     0.929537      0.046890      0.128777     Biso  1.000000 C
   C93        1.0     0.955978      0.006708      0.262357     Biso  1.000000 C
   C94        1.0     0.966108      0.004039      0.176346     Biso  1.000000 C
   C95        1.0     0.951610      0.023683      0.112277     Biso  1.000000 C
   C96        1.0     0.969779      0.112188      0.683707     Biso  1.000000 C
   C97        1.0     0.990801      0.116154      0.740157     Biso  1.000000 C
   C98        1.0     0.933462      0.028629      0.276286     Biso  1.000000 C
   C99        1.0     0.986476      0.107679      0.827291     Biso  1.000000 C
   C100       1.0     0.897687      0.005767      0.854563     Biso  1.000000 C
   C101       1.0     0.884944      0.052645      0.736360     Biso  1.000000 C
   C102       1.0     0.844106      0.785634      0.509284     Biso  1.000000 C
   C103       1.0     0.821041      0.751132      0.657775     Biso  1.000000 C
   C104       1.0     0.814367      0.790938      0.629783     Biso  1.000000 C
   C105       1.0     0.826715      0.807540      0.556558     Biso  1.000000 C
   C106       1.0     0.899730      0.956173      0.432014     Biso  1.000000 C
   C107       1.0     0.883506      0.975574      0.489434     Biso  1.000000 C
   C108       1.0     0.869528      0.952783      0.547785     Biso  1.000000 C
   C109       1.0     0.882603      0.038554      0.822308     Biso  1.000000 C
   C110       1.0     0.901449      0.915400      0.435006     Biso  1.000000 C
   C111       1.0     0.872705      0.909836      0.554676     Biso  1.000000 C
   C112       1.0     0.915212      0.766318      0.682252     Biso  1.000000 C
   C113       1.0     0.895108      0.775379      0.738919     Biso  1.000000 C
   C114       1.0     0.888788      0.815345      0.763338     Biso  1.000000 C
   C115       1.0     0.927360      0.798631      0.640854     Biso  1.000000 C
   C116       1.0     0.920565      0.838409      0.657878     Biso  1.000000 C
   C117       1.0     0.901162      0.847103      0.721174     Biso  1.000000 C
   C118       1.0     0.886839      0.890101      0.490544     Biso  1.000000 C
   C119       1.0     0.875720      0.218168      0.760543     Biso  1.000000 C
   C120       1.0     0.945316      0.104750      0.717378     Biso  1.000000 C
   C121       1.0     0.963137      0.097017      0.861033     Biso  1.000000 C
   C122       1.0     0.882164      0.380035      0.099503     Biso  1.000000 C
   C123       1.0     0.912691      0.433552      0.193331     Biso  1.000000 C
   C124       1.0     0.915289      0.391057      0.204210     Biso  1.000000 C
   C125       1.0     0.902055      0.363954      0.152890     Biso  1.000000 C
   C126       1.0     0.822863      0.246372      0.129958     Biso  1.000000 C
   C127       1.0     0.837467      0.227026      0.193395     Biso  1.000000 C
   C128       1.0     0.854686      0.245517      0.246272     Biso  1.000000 C
   C129       1.0     0.880564      0.422615      0.093805     Biso  1.000000 C
   C130       1.0     0.823540      0.288133      0.131260     Biso  1.000000 C
   C131       1.0     0.855706      0.287827      0.245678     Biso  1.000000 C
   C132       1.0     0.836712      0.446416      0.431656     Biso  1.000000 C
   C133       1.0     0.817227      0.419476      0.419629     Biso  1.000000 C
   C134       1.0     0.821735      0.377960      0.418474     Biso  1.000000 C
   C135       1.0     0.859399      0.432306      0.463056     Biso  1.000000 C
   C136       1.0     0.864860      0.390469      0.464453     Biso  1.000000 C
   C137       1.0     0.846075      0.362741      0.443403     Biso  1.000000 C
   C138       1.0     0.838754      0.308335      0.187869     Biso  1.000000 C
   C139       1.0     0.942418      0.097581      0.805074     Biso  1.000000 C
   C140       1.0     0.896039      0.449281      0.137034     Biso  1.000000 C
   C141       1.0     0.898611      0.339623      0.902622     Biso  1.000000 C
   C142       1.0     0.871651      0.142623      0.105379     Biso  1.000000 C
   C143       1.0     0.877033      0.142839      0.015080     Biso  1.000000 C
   C144       1.0     0.901175      0.150617      0.984678     Biso  1.000000 C
   C145       1.0     0.892466      0.153340      0.158754     Biso  1.000000 C
   C146       1.0     0.916882      0.159744      0.129843     Biso  1.000000 C
   C147       1.0     0.921291      0.158816      0.039849     Biso  1.000000 C
   C148       1.0     0.988549      0.209202      0.709191     Biso  1.000000 C
   C149       1.0     0.904253      0.309815      0.959927     Biso  1.000000 C
   C150       1.0     0.001338      0.207901      0.787061     Biso  1.000000 C
   C151       1.0     0.963206      0.223105      0.704712     Biso  1.000000 C
   C152       1.0     0.950702      0.235186      0.777120     Biso  1.000000 C
   C153       1.0     0.962637      0.234494      0.859444     Biso  1.000000 C
   C154       1.0     0.855404      0.314988      0.879932     Biso  1.000000 C
   C155       1.0     0.861840      0.280046      0.932962     Biso  1.000000 C
   C156       1.0     0.886161      0.277866      0.970978     Biso  1.000000 C
   C157       1.0     0.874704      0.342661      0.860554     Biso  1.000000 C
   C158       1.0     0.988719      0.222659      0.861543     Biso  1.000000 C
   C159       1.0     0.848984      0.744637      0.532069     Biso  1.000000 C
   C160       1.0     0.512996      0.780440      0.070894     Biso  1.000000 C
   C161       1.0     0.532288      0.830649      0.163559     Biso  1.000000 C
   C162       1.0     0.053519      0.722853      0.853337     Biso  1.000000 C
   C163       1.0     0.045285      0.682189      0.864108     Biso  1.000000 C
   C164       1.0     0.133874      0.529038      0.019118     Biso  1.000000 C
   C165       1.0     0.108307      0.529987      0.037529     Biso  1.000000 C
   C166       1.0     0.093897      0.564201      0.010927     Biso  1.000000 C
   C167       1.0     0.145969      0.562275      0.979713     Biso  1.000000 C
   C168       1.0     0.131339      0.599103      0.964630     Biso  1.000000 C
   C169       1.0     0.043649      0.751775      0.907069     Biso  1.000000 C
   C170       1.0     0.105554      0.598272      0.976147     Biso  1.000000 C
   C171       1.0     0.168316      0.694206      0.084700     Biso  1.000000 C
   C172       1.0     0.146863      0.670821      0.098424     Biso  1.000000 C
   C173       1.0     0.143433      0.747545      0.017638     Biso  1.000000 C
   C174       1.0     0.121152      0.723565      0.030615     Biso  1.000000 C
   C175       1.0     0.122995      0.686128      0.073167     Biso  1.000000 C
   C176       1.0     0.024065      0.767040      0.369094     Biso  1.000000 C
   C177       1.0     0.011564      0.748825      0.298549     Biso  1.000000 C
   C178       1.0     0.166315      0.731446      0.043433     Biso  1.000000 C
   C179       1.0     0.024174      0.718034      0.255032     Biso  1.000000 C
   C180       1.0     0.025896      0.672810      0.925242     Biso  1.000000 C
   C181       1.0     0.025126      0.742263      0.966052     Biso  1.000000 C
   C182       1.0     0.954523      0.685358      0.334587     Biso  1.000000 C
   C183       1.0     0.907011      0.723038      0.369713     Biso  1.000000 C
   C184       1.0     0.926599      0.724442      0.429882     Biso  1.000000 C
   C185       1.0     0.950570      0.706242      0.413529     Biso  1.000000 C
   C186       1.0     0.997274      0.787908      0.753065     Biso  1.000000 C
   C187       1.0     0.989864      0.747976      0.767983     Biso  1.000000 C
   C188       1.0     0.993133      0.717501      0.711903     Biso  1.000000 C
   C189       1.0     0.017076      0.702600      0.982196     Biso  1.000000 C
   C190       1.0     0.002206      0.797918      0.668087     Biso  1.000000 C
   C191       1.0     0.003616      0.727310      0.631091     Biso  1.000000 C
   C192       1.0     0.115620      0.663916      0.510694     Biso  1.000000 C
   C193       1.0     0.107376      0.627495      0.549974     Biso  1.000000 C
   C194       1.0     0.085265      0.625230      0.592833     Biso  1.000000 C
   C195       1.0     0.100400      0.698358      0.523513     Biso  1.000000 C
   C196       1.0     0.078954      0.696526      0.577704     Biso  1.000000 C
   C197       1.0     0.070703      0.659880      0.605530     Biso  1.000000 C
   C198       1.0     0.006874      0.766158      0.607074     Biso  1.000000 C
   C199       1.0     0.933988      0.681798      0.274997     Biso  1.000000 C
   C200       1.0     0.049577      0.756566      0.389569     Biso  1.000000 C
   C201       1.0     0.049419      0.708225      0.272758     Biso  1.000000 C
   C202       1.0     0.143348      0.450670      0.233274     Biso  1.000000 C
   C203       1.0     0.114267      0.385293      0.300029     Biso  1.000000 C
   C204       1.0     0.122562      0.416001      0.353135     Biso  1.000000 C
   C205       1.0     0.138428      0.447086      0.322661     Biso  1.000000 C
   C206       1.0     0.241028      0.532592      0.386609     Biso  1.000000 C
   C207       1.0     0.235414      0.505564      0.319618     Biso  1.000000 C
   C208       1.0     0.218819      0.472072      0.334931     Biso  1.000000 C
   C209       1.0     0.133776      0.420604      0.177220     Biso  1.000000 C
   C210       1.0     0.231483      0.527227      0.466654     Biso  1.000000 C
   C211       1.0     0.209600      0.466484      0.415839     Biso  1.000000 C
   C212       1.0     0.168687      0.298070      0.282973     Biso  1.000000 C
   C213       1.0     0.164589      0.294404      0.372973     Biso  1.000000 C
   C214       1.0     0.180302      0.316601      0.427956     Biso  1.000000 C
   C215       1.0     0.188463      0.323020      0.253782     Biso  1.000000 C
   C216       1.0     0.204262      0.343516      0.313645     Biso  1.000000 C
   C217       1.0     0.199600      0.341957      0.401763     Biso  1.000000 C
   C218       1.0     0.217663      0.493144      0.483397     Biso  1.000000 C
   C219       1.0     0.061793      0.729848      0.333674     Biso  1.000000 C
   C220       1.0     0.120124      0.388807      0.213009     Biso  1.000000 C
   C221       1.0     0.150953      0.584954      0.383444     Biso  1.000000 C
   C222       1.0     0.994854      0.587116      0.099407     Biso  1.000000 C
   C223       1.0     0.984912      0.598921      0.177341     Biso  1.000000 C
   C224       1.0     0.002351      0.606502      0.246718     Biso  1.000000 C
   C225       1.0     0.020451      0.578844      0.087533     Biso  1.000000 C
   C226       1.0     0.036722      0.583993      0.159009     Biso  1.000000 C
   C227       1.0     0.028205      0.599006      0.239138     Biso  1.000000 C
   C228       1.0     0.043200      0.425705      0.400755     Biso  1.000000 C
   C229       1.0     0.135835      0.559388      0.332985     Biso  1.000000 C
   C230       1.0     0.057949      0.433197      0.330267     Biso  1.000000 C
   C231       1.0     0.039068      0.455170      0.461059     Biso  1.000000 C
   C232       1.0     0.048838      0.494048      0.452923     Biso  1.000000 C
   C233       1.0     0.062402      0.502438      0.378110     Biso  1.000000 C
   C234       1.0     0.172987      0.608540      0.254503     Biso  1.000000 C
   C235       1.0     0.158457      0.581045      0.206794     Biso  1.000000 C
   C236       1.0     0.139870      0.557927      0.244351     Biso  1.000000 C
   C237       1.0     0.169972      0.608791      0.343724     Biso  1.000000 C
   C238       1.0     0.067539      0.472424      0.313728     Biso  1.000000 C
   C239       1.0     0.515857      0.798167      0.154345     Biso  1.000000 C
   C240       1.0     0.910237      0.699922      0.293667     Biso  1.000000 C
   C241       1.0     0.806543      0.970874      0.436027     Biso  1.000000 C
   C242       1.0     0.627503      0.780586      0.616429     Biso  1.000000 C
   C243       1.0     0.599626      0.728144      0.717984     Biso  1.000000 C
   C244       1.0     0.619001      0.711770      0.666058     Biso  1.000000 C
   C245       1.0     0.632774      0.737830      0.616065     Biso  1.000000 C
   C246       1.0     0.672392      0.611481      0.794807     Biso  1.000000 C
   C247       1.0     0.670014      0.647087      0.841297     Biso  1.000000 C
   C248       1.0     0.675982      0.683529      0.796530     Biso  1.000000 C
   C249       1.0     0.607338      0.796775      0.663563     Biso  1.000000 C
   C250       1.0     0.677847      0.610344      0.706786     Biso  1.000000 C
   C251       1.0     0.681993      0.683923      0.707098     Biso  1.000000 C
   C252       1.0     0.730100      0.837788      0.406248     Biso  1.000000 C
   C253       1.0     0.749869      0.815567      0.446728     Biso  1.000000 C
   C254       1.0     0.745473      0.796439      0.523896     Biso  1.000000 C
   C255       1.0     0.706054      0.840104      0.444794     Biso  1.000000 C
   C256       1.0     0.703390      0.825170      0.528892     Biso  1.000000 C
   C257       1.0     0.721843      0.801254      0.568714     Biso  1.000000 C
   C258       1.0     0.681780      0.645649      0.661189     Biso  1.000000 C
   C259       1.0     0.796944      0.772298      0.965887     Biso  1.000000 C
   C260       1.0     0.593766      0.769648      0.712273     Biso  1.000000 C
   C261       1.0     0.606632      0.678975      0.280032     Biso  1.000000 C
   C262       1.0     0.619664      0.885377      0.383763     Biso  1.000000 C
   C263       1.0     0.618537      0.860700      0.309185     Biso  1.000000 C
   C264       1.0     0.598917      0.833051      0.298715     Biso  1.000000 C
   C265       1.0     0.602249      0.881132      0.452668     Biso  1.000000 C
   C266       1.0     0.581900      0.853735      0.435312     Biso  1.000000 C
   C267       1.0     0.579936      0.830613      0.361666     Biso  1.000000 C
   C268       1.0     0.533359      0.620696      0.502163     Biso  1.000000 C
   C269       1.0     0.619986      0.711727      0.321360     Biso  1.000000 C
   C270       1.0     0.547278      0.642559      0.556488     Biso  1.000000 C
   C271       1.0     0.532392      0.631734      0.414881     Biso  1.000000 C
   C272       1.0     0.543299      0.667494      0.382889     Biso  1.000000 C
   C273       1.0     0.557235      0.691283      0.443665     Biso  1.000000 C
   C274       1.0     0.624774      0.700799      0.143185     Biso  1.000000 C
   C275       1.0     0.635704      0.734603      0.184187     Biso  1.000000 C
   C276       1.0     0.636099      0.736068      0.272885     Biso  1.000000 C
   C277       1.0     0.610811      0.672316      0.191461     Biso  1.000000 C
   C278       1.0     0.559574      0.678144      0.529198     Biso  1.000000 C
   C279       1.0     0.798129      0.010104      0.406306     Biso  1.000000 C
   C280       1.0     0.799991      0.802267      0.905761     Biso  1.000000 C
   C281       1.0     0.773591      0.754101      0.979969     Biso  1.000000 C
   C282       1.0     0.755730      0.097684      0.127463     Biso  1.000000 C
   C283       1.0     0.731359      0.102566      0.170456     Biso  1.000000 C
   C284       1.0     0.719616      0.067418      0.207828     Biso  1.000000 C
   C285       1.0     0.766078      0.059498      0.119589     Biso  1.000000 C
   C286       1.0     0.752705      0.023962      0.148953     Biso  1.000000 C
   C287       1.0     0.729175      0.028996      0.194958     Biso  1.000000 C
   C288       1.0     0.730604      0.922490      0.619000     Biso  1.000000 C
   C289       1.0     0.665501      0.936236      0.094685     Biso  1.000000 C
   C290       1.0     0.748332      0.910585      0.552794     Biso  1.000000 C
   C291       1.0     0.715240      0.955776      0.604331     Biso  1.000000 C
   C292       1.0     0.717200      0.976796      0.527654     Biso  1.000000 C
   C293       1.0     0.735054      0.965865      0.464861     Biso  1.000000 C
   C294       1.0     0.829771      0.959948      0.306378     Biso  1.000000 C
   C295       1.0     0.821145      0.996119      0.270939     Biso  1.000000 C
   C296       1.0     0.807067      0.024705      0.323319     Biso  1.000000 C
   C297       1.0     0.823046      0.948159      0.390673     Biso  1.000000 C
   C298       1.0     0.750614      0.932824      0.476277     Biso  1.000000 C
   C299       1.0     0.778577      0.813596      0.857970     Biso  1.000000 C
   C300       1.0     0.652476      0.899174      0.105609     Biso  1.000000 C
   C301       1.0     0.654080      0.967963      0.051954     Biso  1.000000 C
   C302       1.0     0.752873      0.764741      0.929797     Biso  1.000000 C
   C303       1.0     0.755078      0.792293      0.865359     Biso  1.000000 C
   C304       1.0     0.641280      0.768289      0.931437     Biso  1.000000 C
   C305       1.0     0.663460      0.754174      0.972720     Biso  1.000000 C
   C306       1.0     0.685387      0.778366      0.965989     Biso  1.000000 C
   C307       1.0     0.642193      0.800666      0.876314     Biso  1.000000 C
   C308       1.0     0.664176      0.824667      0.873252     Biso  1.000000 C
   C309       1.0     0.627705      0.893661      0.078566     Biso  1.000000 C
   C310       1.0     0.686180      0.814542      0.920507     Biso  1.000000 C
   C311       1.0     0.786196      0.905248      0.886925     Biso  1.000000 C
   C312       1.0     0.766597      0.902055      0.947950     Biso  1.000000 C
   C313       1.0     0.758624      0.951613      0.806905     Biso  1.000000 C
   C314       1.0     0.739835      0.946885      0.868281     Biso  1.000000 C
   C315       1.0     0.743719      0.921338      0.938520     Biso  1.000000 C
   C316       1.0     0.616101      0.924937      0.032231     Biso  1.000000 C
   C317       1.0     0.628990      0.961292      0.020634     Biso  1.000000 C
   C318       1.0     0.782188      0.931778      0.817497     Biso  1.000000 C
   C319       1.0     0.837360      0.726871      0.607113     Biso  1.000000 C
   C320       1.0     0.176287      0.842557      0.820917     Biso  1.000000 C
   C321       1.0     0.170447      0.874103      0.673115     Biso  1.000000 C
   C322       1.0     0.164074      0.451061      0.458621     Biso  1.000000 C
   C323       1.0     0.150367      0.475659      0.387617     Biso  1.000000 C
   C324       1.0     0.198695      0.399745      0.496044     Biso  1.000000 C
   C325       1.0     0.190289      0.433258      0.433488     Biso  1.000000 C
   C326       1.0     0.226689      0.340675      0.537850     Biso  1.000000 C
   C327       1.0     0.215766      0.366383      0.463624     Biso  1.000000 C
   C328       1.0     0.273578      0.334461      0.539854     Biso  1.000000 C
   C329       1.0     0.116562      0.532006      0.372482     Biso  1.000000 C
   C330       1.0     0.250798      0.357710      0.584863     Biso  1.000000 C
   C331       1.0     0.299510      0.354705      0.550490     Biso  1.000000 C
   C332       1.0     0.363953      0.295281      0.562722     Biso  1.000000 C
   C333       1.0     0.335684      0.301412      0.580920     Biso  1.000000 C
   C334       1.0     0.378263      0.365965      0.603189     Biso  1.000000 C
   C335       1.0     0.382418      0.319236      0.615605     Biso  1.000000 C
   C336       1.0     0.386017      0.435933      0.650361     Biso  1.000000 C
   C337       1.0     0.398224      0.393871      0.634409     Biso  1.000000 C
   C338       1.0     0.322130      0.327706      0.511243     Biso  1.000000 C
   C339       1.0     0.381427      0.502123      0.732264     Biso  1.000000 C
   C340       1.0     0.128790      0.501962      0.431063     Biso  1.000000 C
   C341       1.0     0.094542      0.553384      0.414626     Biso  1.000000 C
   C342       1.0     0.988966      0.679472      0.512774     Biso  1.000000 C
   C343       1.0     0.972217      0.713449      0.476149     Biso  1.000000 C
   C344       1.0     0.021934      0.652848      0.612747     Biso  1.000000 C
   C345       1.0     0.010904      0.691544      0.570111     Biso  1.000000 C
   C346       1.0     0.049238      0.632689      0.739742     Biso  1.000000 C
   C347       1.0     0.047318      0.660062      0.663218     Biso  1.000000 C
   C348       1.0     0.070885      0.619001      0.882989     Biso  1.000000 C
   C349       1.0     0.070608      0.546856      0.363070     Biso  1.000000 C
   C350       1.0     0.061923      0.651168      0.817274     Biso  1.000000 C
   C351       1.0     0.090174      0.633529      0.950082     Biso  1.000000 C
   C352       1.0     0.086526      0.687411      0.179676     Biso  1.000000 C
   C353       1.0     0.098998      0.663831      0.101972     Biso  1.000000 C
   C354       1.0     0.067776      0.634703      0.280313     Biso  1.000000 C
   C355       1.0     0.062091      0.671797      0.223237     Biso  1.000000 C
   C356       1.0     0.050598      0.579114      0.380311     Biso  1.000000 C
   C357       1.0     0.045603      0.610984      0.313154     Biso  1.000000 C
   C358       1.0     0.081106      0.657500      0.022910     Biso  1.000000 C
   C359       1.0     0.776194      0.030215      0.459170     Biso  1.000000 C
   C360       1.0     0.395040      0.459358      0.728805     Biso  1.000000 C
   C361       1.0     0.397097      0.538471      0.759809     Biso  1.000000 C
   C362       1.0     0.812466      0.765545      0.328468     Biso  1.000000 C
   C363       1.0     0.796905      0.729112      0.295071     Biso  1.000000 C
   C364       1.0     0.848429      0.817301      0.286936     Biso  1.000000 C
   C365       1.0     0.822624      0.797448      0.261962     Biso  1.000000 C
   C366       1.0     0.883511      0.865770      0.243049     Biso  1.000000 C
   C367       1.0     0.860705      0.839243      0.210559     Biso  1.000000 C
   C368       1.0     0.923573      0.899123      0.186146     Biso  1.000000 C
   C369       1.0     0.760691      0.678402      0.318086     Biso  1.000000 C
   C370       1.0     0.897439      0.886687      0.162991     Biso  1.000000 C
   C371       1.0     0.943794      0.864612      0.203253     Biso  1.000000 C
   C372       1.0     0.008786      0.848334      0.081611     Biso  1.000000 C
   C373       1.0     0.984519      0.837600      0.122250     Biso  1.000000 C
   C374       1.0     0.033487      0.867323      0.219492     Biso  1.000000 C
   C375       1.0     0.028455      0.876771      0.122301     Biso  1.000000 C
   C376       1.0     0.046717      0.880759      0.365374     Biso  1.000000 C
   C377       1.0     0.049125      0.896115      0.272860     Biso  1.000000 C
   C378       1.0     0.968072      0.875213      0.146905     Biso  1.000000 C
   C379       1.0     0.409233      0.533477      0.847837     Biso  1.000000 C
   C380       1.0     0.779047      0.708267      0.360716     Biso  1.000000 C
   C381       1.0     0.750353      0.647930      0.387489     Biso  1.000000 C
   C382       1.0     0.439819      0.565899      0.951881     Biso  1.000000 C
   C383       1.0     0.429015      0.567160      0.858123     Biso  1.000000 C
   C384       1.0     0.474652      0.591095      0.064870     Biso  1.000000 C
   C385       1.0     0.461582      0.596419      0.976536     Biso  1.000000 C
   C386       1.0     0.512915      0.566805      0.145878     Biso  1.000000 C
   C387       1.0     0.494226      0.558039      0.066658     Biso  1.000000 C
   C388       1.0     0.548875      0.540664      0.242813     Biso  1.000000 C
   C389       1.0     0.736402      0.612782      0.349428     Biso  1.000000 C
   C390       1.0     0.536206      0.541097      0.152035     Biso  1.000000 C
   C391       1.0     0.573056      0.514467      0.255734     Biso  1.000000 C
   C392       1.0     0.625411      0.550389      0.346570     Biso  1.000000 C
   C393       1.0     0.611940      0.509358      0.361832     Biso  1.000000 C
   C394       1.0     0.662303      0.600831      0.388982     Biso  1.000000 C
   C395       1.0     0.646906      0.562688      0.413503     Biso  1.000000 C
   C396       1.0     0.707562      0.625733      0.359746     Biso  1.000000 C
   C397       1.0     0.686608      0.591874      0.340495     Biso  1.000000 C
   C398       1.0     0.583403      0.512930      0.346340     Biso  1.000000 C
   C399       1.0     0.059903      0.935781      0.473086     Biso  1.000000 C
   C400       1.0     0.785109      0.068950      0.491622     Biso  1.000000 C
   C401       1.0     0.749715      0.033696      0.413931     Biso  1.000000 C
   C402       1.0     0.902636      0.303510      0.253686     Biso  1.000000 C
   C403       1.0     0.906011      0.316998      0.158907     Biso  1.000000 C
   C404       1.0     0.876841      0.306706      0.391043     Biso  1.000000 C
   C405       1.0     0.876645      0.313366      0.295741     Biso  1.000000 C
   C406       1.0     0.854619      0.303841      0.533052     Biso  1.000000 C
   C407       1.0     0.852182      0.317356      0.441661     Biso  1.000000 C
   C408       1.0     0.824275      0.245790      0.554670     Biso  1.000000 C
   C409       1.0     0.929539      0.309815      0.006701     Biso  1.000000 C
   C410       1.0     0.851852      0.256170      0.542011     Biso  1.000000 C
   C411       1.0     0.817171      0.200796      0.573640     Biso  1.000000 C
   C412       1.0     0.748586      0.168771      0.656238     Biso  1.000000 C
   C413       1.0     0.778479      0.168932      0.653800     Biso  1.000000 C
   C414       1.0     0.733745      0.115451      0.765973     Biso  1.000000 C
   C415       1.0     0.734922      0.127240      0.670837     Biso  1.000000 C
   C416       1.0     0.717381      0.060741      0.853408     Biso  1.000000 C
   C417       1.0     0.735179      0.070921      0.777146     Biso  1.000000 C
   C418       1.0     0.787743      0.195056      0.580716     Biso  1.000000 C
   C419       1.0     0.680423      0.016684      0.805744     Biso  1.000000 C
   C420       1.0     0.928044      0.297403      0.110337     Biso  1.000000 C
   C421       1.0     0.951420      0.287536      0.963239     Biso  1.000000 C
   C422       1.0     0.830378      0.879610      0.610909     Biso  1.000000 C
   C423       1.0     0.822824      0.852519      0.536230     Biso  1.000000 C
   C424       1.0     0.866831      0.897594      0.712413     Biso  1.000000 C
   C425       1.0     0.860046      0.882421      0.624653     Biso  1.000000 C
   C426       1.0     0.903814      0.909069      0.818269     Biso  1.000000 C
   C427       1.0     0.895078      0.891181      0.729316     Biso  1.000000 C
   C428       1.0     0.936797      0.946682      0.898372     Biso  1.000000 C
   C429       1.0     0.949223      0.241566      0.942680     Biso  1.000000 C
   C430       1.0     0.922075      0.943173      0.814798     Biso  1.000000 C
   C431       1.0     0.961976      0.970346      0.898557     Biso  1.000000 C
   C432       1.0     0.977283      0.054780      0.985003     Biso  1.000000 C
   C433       1.0     0.960719      0.020984      0.017080     Biso  1.000000 C
   C434       1.0     0.967571      0.133120      0.005966     Biso  1.000000 C
   C435       1.0     0.961277      0.092790      0.957936     Biso  1.000000 C
   C436       1.0     0.957781      0.210211      0.010865     Biso  1.000000 C
   C437       1.0     0.947779      0.166491      0.995601     Biso  1.000000 C
   C438       1.0     0.971111      0.979546      0.989233     Biso  1.000000 C
   C439       1.0     0.737640      0.991903      0.387751     Biso  1.000000 C
   C440       1.0     0.689832      0.061199      0.825077     Biso  1.000000 C
   C441       1.0     0.654151      0.013088      0.762636     Biso  1.000000 C
   C442       1.0     0.676879      0.723620      0.565409     Biso  1.000000 C
   C443       1.0     0.648591      0.716861      0.551926     Biso  1.000000 C
   C444       1.0     0.713311      0.737742      0.660283     Biso  1.000000 C
   C445       1.0     0.686150      0.722174      0.657463     Biso  1.000000 C
   C446       1.0     0.739775      0.797324      0.714576     Biso  1.000000 C
   C447       1.0     0.717487      0.783906      0.657469     Biso  1.000000 C
   C448       1.0     0.720990      0.842476      0.823087     Biso  1.000000 C
   C449       1.0     0.618886      0.715081      0.418327     Biso  1.000000 C
   C450       1.0     0.732607      0.801293      0.806797     Biso  1.000000 C
   C451       1.0     0.708348      0.844089      0.915690     Biso  1.000000 C
   C452       1.0     0.710040      0.947661      0.041964     Biso  1.000000 C
   C453       1.0     0.721110      0.911255      0.998747     Biso  1.000000 C
   C454       1.0     0.693444      0.978458      0.188533     Biso  1.000000 C
   C455       1.0     0.693291      0.942221      0.122646     Biso  1.000000 C
   C456       1.0     0.713365      0.997798      0.334415     Biso  1.000000 C
   C457       1.0     0.717451      0.992401      0.235565     Biso  1.000000 C
   C458       1.0     0.700256      0.885034      0.954223     Biso  1.000000 C
   C459       1.0     0.632135      0.010465      0.820936     Biso  1.000000 C
   C460       1.0     0.643337      0.729882      0.459942     Biso  1.000000 C
   C461       1.0     0.596390      0.741681      0.444941     Biso  1.000000 C
   C462       1.0     0.583860      0.995299      0.840812     Biso  1.000000 C
   C463       1.0     0.605006      0.008248      0.780349     Biso  1.000000 C
   C464       1.0     0.538056      0.989232      0.875714     Biso  1.000000 C
   C465       1.0     0.557360      0.984686      0.807371     Biso  1.000000 C
   C466       1.0     0.495838      0.950436      0.876219     Biso  1.000000 C
   C467       1.0     0.511478      0.986967      0.839440     Biso  1.000000 C
   C468       1.0     0.501843      0.961647      0.038022     Biso  1.000000 C
   C469       1.0     0.569915      0.729851      0.411289     Biso  1.000000 C
   C470       1.0     0.483107      0.953735      0.961962     Biso  1.000000 C
   C471       1.0     0.488319      0.962489      0.130137     Biso  1.000000 C
   C472       1.0     0.516262      0.891357      0.253099     Biso  1.000000 C
   C473       1.0     0.527286      0.932118      0.209972     Biso  1.000000 C
   C474       1.0     0.534727      0.827220      0.331964     Biso  1.000000 C
   C475       1.0     0.534695      0.853841      0.247350     Biso  1.000000 C
   C476       1.0     0.552581      0.767798      0.415015     Biso  1.000000 C
   C477       1.0     0.557164      0.801036      0.347099     Biso  1.000000 C
   C478       1.0     0.507958      0.966456      0.204631     Biso  1.000000 C
   C479       1.0     0.067426      0.896260      0.426437     Biso  1.000000 C
   C480       1.0     0.074639      0.991479      0.576173     Biso  1.000000 C
   C481       1.0     0.082120      0.957468      0.517853     Biso  1.000000 C
   C482       1.0     0.962944      0.239067      0.430221     Biso  1.000000 C
   C483       1.0     0.964056      0.318793      0.593949     Biso  1.000000 C
   C484       1.0     0.967045      0.310533      0.497913     Biso  1.000000 C
   C485       1.0     0.978325      0.357249      0.726866     Biso  1.000000 C
   C486       1.0     0.984409      0.348638      0.628494     Biso  1.000000 C
   C487       1.0     0.020273      0.381748      0.787514     Biso  1.000000 C
   C488       1.0     0.991264      0.392046      0.775008     Biso  1.000000 C
   C489       1.0     0.948908      0.274612      0.468537     Biso  1.000000 C
   C490       1.0     0.060521      0.392646      0.872263     Biso  1.000000 C
   C491       1.0     0.100824      0.408496      0.958172     Biso  1.000000 C
   C492       1.0     0.073414      0.421378      0.937237     Biso  1.000000 C
   C493       1.0     0.132159      0.437061      0.839428     Biso  1.000000 C
   C494       1.0     0.121539      0.398104      0.892049     Biso  1.000000 C
   C495       1.0     0.161860      0.466220      0.721787     Biso  1.000000 C
   C496       1.0     0.150592      0.427172      0.762725     Biso  1.000000 C
   C497       1.0     0.206327      0.484335      0.775270     Biso  1.000000 C
   C498       1.0     0.034352      0.412978      0.843428     Biso  1.000000 C
   C499       1.0     0.178162      0.496243      0.767772     Biso  1.000000 C
   C500       1.0     0.995512      0.229048      0.310774     Biso  1.000000 C
   C501       1.0     0.023424      0.185498      0.206507     Biso  1.000000 C
   C502       1.0     0.219582      0.066424      0.229771     Biso  1.000000 C
   C503       1.0     0.187759      0.080430      0.454525     Biso  1.000000 C
   C504       1.0     0.200395      0.093363      0.369151     Biso  1.000000 C
   C505       1.0     0.164628      0.094825      0.588475     Biso  1.000000 C
   C506       1.0     0.178757      0.113725      0.513935     Biso  1.000000 C
   C507       1.0     0.150428      0.107830      0.739238     Biso  1.000000 C
   C508       1.0     0.149529      0.124335      0.642379     Biso  1.000000 C
   C509       1.0     0.969724      0.249929      0.336788     Biso  1.000000 C
   C510       1.0     0.137940      0.120633      0.897849     Biso  1.000000 C
   C511       1.0     0.095422      0.131725      0.949022     Biso  1.000000 C
   C512       1.0     0.114753      0.100031      0.927870     Biso  1.000000 C
   C513       1.0     0.047555      0.137893      0.994976     Biso  1.000000 C
   C514       1.0     0.069610      0.110556      0.966040     Biso  1.000000 C
   C515       1.0     0.023500      0.167868      0.115282     Biso  1.000000 C
   C516       1.0     0.050244      0.163683      0.072893     Biso  1.000000 C
   C517       1.0     0.998291      0.205126      0.223039     Biso  1.000000 C
   C518       1.0     0.139515      0.138269      0.802432     Biso  1.000000 C
   C519       1.0     0.208605      0.056253      0.316255     Biso  1.000000 C
   C520       1.0     0.251075      0.491230      0.828982     Biso  1.000000 C
   C521       1.0     0.297720      0.514188      0.866788     Biso  1.000000 C
   C522       1.0     0.352559      0.759608      0.876436     Biso  1.000000 C
   C523       1.0     0.280156      0.747636      0.850077     Biso  1.000000 C
   C524       1.0     0.306294      0.770688      0.840984     Biso  1.000000 C
   C525       1.0     0.266653      0.775052      0.000333     Biso  1.000000 C
   C526       1.0     0.273382      0.737084      0.943458     Biso  1.000000 C
   C527       1.0     0.236449      0.769348      0.126997     Biso  1.000000 C
   C528       1.0     0.265121      0.770060      0.097659     Biso  1.000000 C
   C529       1.0     0.328243      0.738148      0.850000     Biso  1.000000 C
   C530       1.0     0.200749      0.763201      0.228444     Biso  1.000000 C
   C531       1.0     0.191710      0.769032      0.392874     Biso  1.000000 C
   C532       1.0     0.190902      0.789670      0.304776     Biso  1.000000 C
   C533       1.0     0.186703      0.828066      0.500702     Biso  1.000000 C
   C534       1.0     0.203418      0.791784      0.470923     Biso  1.000000 C
   C535       1.0     0.182072      0.894104      0.587671     Biso  1.000000 C
   C536       1.0     0.198296      0.864772      0.542240     Biso  1.000000 C
   C537       1.0     0.190303      0.857431      0.743800     Biso  1.000000 C
   C538       1.0     0.229495      0.762407      0.222076     Biso  1.000000 C
   C539       1.0     0.223154      0.505977      0.836333     Biso  1.000000 C
   C540       1.0     0.396146      0.776386      0.821479     Biso  1.000000 C
   C541       1.0     0.425611      0.759756      0.685946     Biso  1.000000 C
   C542       1.0     0.270651      0.526921      0.839804     Biso  1.000000 C
   C543       1.0     0.329232      0.504967      0.986050     Biso  1.000000 C
   C544       1.0     0.300939      0.503226      0.961879     Biso  1.000000 C
   C545       1.0     0.361123      0.516126      0.100224     Biso  1.000000 C
   C546       1.0     0.333785      0.515771      0.082300     Biso  1.000000 C
   C547       1.0     0.390738      0.547432      0.213941     Biso  1.000000 C
   C548       1.0     0.367664      0.516848      0.199590     Biso  1.000000 C
   C549       1.0     0.375062      0.746566      0.821970     Biso  1.000000 C
   C550       1.0     0.416719      0.591683      0.310940     Biso  1.000000 C
   C551       1.0     0.445546      0.640415      0.389021     Biso  1.000000 C
   C552       1.0     0.431607      0.598545      0.395376     Biso  1.000000 C
   C553       1.0     0.427524      0.687726      0.512072     Biso  1.000000 C
   C554       1.0     0.431913      0.680412      0.413612     Biso  1.000000 C
   C555       1.0     0.409843      0.727262      0.632374     Biso  1.000000 C
   C556       1.0     0.412850      0.727862      0.535228     Biso  1.000000 C
   C557       1.0     0.420565      0.755632      0.781612     Biso  1.000000 C
   C558       1.0     0.397163      0.556189      0.305906     Biso  1.000000 C
   C559       1.0     0.906567      0.583502      0.264469     Biso  1.000000 C
   C560       1.0     0.884812      0.553187      0.273817     Biso  1.000000 C
   C561       1.0     0.922636      0.572661      0.422947     Biso  1.000000 C
   C562       1.0     0.295706      0.110957      0.174584     Biso  1.000000 C
   C563       1.0     0.282218      0.135285      0.099637     Biso  1.000000 C
   C564       1.0     0.322008      0.115393      0.315457     Biso  1.000000 C
   C565       1.0     0.308670      0.139197      0.244696     Biso  1.000000 C
   C566       1.0     0.368093      0.093557      0.355075     Biso  1.000000 C
   C567       1.0     0.346442      0.093648      0.287051     Biso  1.000000 C
   C568       1.0     0.400693      0.143175      0.290196     Biso  1.000000 C
   C569       1.0     0.258803      0.125321      0.954637     Biso  1.000000 C
   C570       1.0     0.381904      0.137420      0.360926     Biso  1.000000 C
   C571       1.0     0.402944      0.185813      0.255919     Biso  1.000000 C
   C572       1.0     0.426783      0.292294      0.333132     Biso  1.000000 C
   C573       1.0     0.414153      0.259484      0.276344     Biso  1.000000 C
   C574       1.0     0.450775      0.258526      0.455284     Biso  1.000000 C
   C575       1.0     0.453553      0.282815      0.369553     Biso  1.000000 C
   C576       1.0     0.497477      0.269124      0.507823     Biso  1.000000 C
   C577       1.0     0.468850      0.272277      0.526627     Biso  1.000000 C
   C578       1.0     0.411675      0.217507      0.321309     Biso  1.000000 C
   C579       1.0     0.530216      0.272114      0.621673     Biso  1.000000 C
   C580       1.0     0.273738      0.106190      0.031710     Biso  1.000000 C
   C581       1.0     0.247410      0.093160      0.897862     Biso  1.000000 C
   C582       1.0     0.510502      0.071558      0.313569     Biso  1.000000 C
   C583       1.0     0.539050      0.071937      0.302294     Biso  1.000000 C
   C584       1.0     0.470668      0.050786      0.382212     Biso  1.000000 C
   C585       1.0     0.499199      0.055077      0.397054     Biso  1.000000 C
   C586       1.0     0.427358      0.025778      0.419016     Biso  1.000000 C
   C587       1.0     0.455844      0.025521      0.446377     Biso  1.000000 C
   C588       1.0     0.383445      0.990806      0.439990     Biso  1.000000 C
   C589       1.0     0.265944      0.057700      0.867688     Biso  1.000000 C
   C590       1.0     0.411138      0.995418      0.473846     Biso  1.000000 C
   C591       1.0     0.371001      0.951230      0.482676     Biso  1.000000 C
   C592       1.0     0.330787      0.962744      0.648753     Biso  1.000000 C
   C593       1.0     0.333964      0.987976      0.562301     Biso  1.000000 C
   C594       1.0     0.312431      0.017245      0.742645     Biso  1.000000 C
   C595       1.0     0.334228      0.985866      0.737273     Biso  1.000000 C
   C596       1.0     0.290290      0.075136      0.828147     Biso  1.000000 C
   C597       1.0     0.313174      0.044718      0.827043     Biso  1.000000 C
   C598       1.0     0.342089      0.960892      0.489523     Biso  1.000000 C
   C599       1.0     0.515194      0.296457      0.560642     Biso  1.000000 C
   C600       1.0     0.535938      0.336984      0.715049     Biso  1.000000 C
   C601       1.0     0.531030      0.292400      0.713932     Biso  1.000000 C
   C602       1.0     0.747757      0.361449      0.836914     Biso  1.000000 C
   C603       1.0     0.782853      0.427573      0.942348     Biso  1.000000 C
   C604       1.0     0.758110      0.405443      0.970219     Biso  1.000000 C
   C605       1.0     0.810660      0.486627      0.955186     Biso  1.000000 C
   C606       1.0     0.784837      0.472621      0.974137     Biso  1.000000 C
   C607       1.0     0.846425      0.541731      0.958702     Biso  1.000000 C
   C608       1.0     0.820289      0.528240      0.993354     Biso  1.000000 C
   C609       1.0     0.757957      0.361656      0.929721     Biso  1.000000 C
   C610       1.0     0.862812      0.591043      0.856898     Biso  1.000000 C
   C611       1.0     0.878435      0.649003      0.757142     Biso  1.000000 C
   C612       1.0     0.856912      0.618346      0.774153     Biso  1.000000 C
   C613       1.0     0.905151      0.641956      0.616690     Biso  1.000000 C
   C614       1.0     0.900797      0.625239      0.712439     Biso  1.000000 C
   C615       1.0     0.916275      0.613027      0.466520     Biso  1.000000 C
   C616       1.0     0.902250      0.605219      0.553164     Biso  1.000000 C
   C617       1.0     0.928310      0.577252      0.324033     Biso  1.000000 C
   C618       1.0     0.845728      0.552432      0.863738     Biso  1.000000 C
   C619       1.0     0.719384      0.310639      0.745976     Biso  1.000000 C
   C620       1.0     0.734623      0.317647      0.825549     Biso  1.000000 C
   C621       1.0     0.722686      0.296278      0.581552     Biso  1.000000 C
   C622       1.0     0.538765      0.407341      0.794412     Biso  1.000000 C
   C623       1.0     0.533800      0.360464      0.800046     Biso  1.000000 C
   C624       1.0     0.585375      0.410070      0.839262     Biso  1.000000 C
   C625       1.0     0.565800      0.417781      0.766037     Biso  1.000000 C
   C626       1.0     0.630462      0.398429      0.904594     Biso  1.000000 C
   C627       1.0     0.614895      0.410191      0.823374     Biso  1.000000 C
   C628       1.0     0.671130      0.380547      0.974934     Biso  1.000000 C
   C629       1.0     0.659173      0.389726      0.889050     Biso  1.000000 C
   C630       1.0     0.690655      0.336639      0.082237     Biso  1.000000 C
   C631       1.0     0.673811      0.337460      0.002909     Biso  1.000000 C
   C632       1.0     0.703559      0.306897      0.219753     Biso  1.000000 C
   C633       1.0     0.693755      0.293889      0.132166     Biso  1.000000 C
   C634       1.0     0.718766      0.286781      0.363274     Biso  1.000000 C
   C635       1.0     0.703848      0.274430      0.286113     Biso  1.000000 C
   C636       1.0     0.737564      0.270652      0.514867     Biso  1.000000 C
   C637       1.0     0.724135      0.253865      0.433181     Biso  1.000000 C
   C638       1.0     0.734125      0.293667      0.673950     Biso  1.000000 C
   C639       1.0     0.237117      0.334865      0.853414     Biso  1.000000 C
   C640       1.0     0.246699      0.302825      0.800110     Biso  1.000000 C
   C641       1.0     0.192993      0.830316      0.896305     Biso  1.000000 C
   C642       1.0     0.233068      0.373209      0.819520     Biso  1.000000 C
   C643       1.0     0.123387      0.135337      0.603208     Biso  1.000000 C
   C644       1.0     0.172394      0.253768      0.745855     Biso  1.000000 C
   C645       1.0     0.146261      0.252094      0.759656     Biso  1.000000 C
   C646       1.0     0.135946      0.216361      0.790653     Biso  1.000000 C
   C647       1.0     0.189457      0.221343      0.761794     Biso  1.000000 C
   C648       1.0     0.177977      0.185589      0.791681     Biso  1.000000 C
   C649       1.0     0.151485      0.181513      0.798712     Biso  1.000000 C
   C650       1.0     0.103841      0.104828      0.601236     Biso  1.000000 C
   C651       1.0     0.137083      0.009752      0.126646     Biso  1.000000 C
   C652       1.0     0.117267      0.026928      0.989687     Biso  1.000000 C
   C653       1.0     0.145210      0.051456      0.132721     Biso  1.000000 C
   C654       1.0     0.136195      0.079757      0.071048     Biso  1.000000 C
   C655       1.0     0.121882      0.067652      0.000212     Biso  1.000000 C
   C656       1.0     0.040387      0.034196      0.759069     Biso  1.000000 C
   C657       1.0     0.042015      0.017060      0.839964     Biso  1.000000 C
   C658       1.0     0.052291      0.041877      0.909564     Biso  1.000000 C
   C659       1.0     0.123269      0.998202      0.055759     Biso  1.000000 C
   C660       1.0     0.047990      0.074120      0.743845     Biso  1.000000 C
   C661       1.0     0.080710      0.114823      0.567284     Biso  1.000000 C
   C662       1.0     0.091683      0.185025      0.561114     Biso  1.000000 C
   C663       1.0     0.264403      0.983537      0.138999     Biso  1.000000 C
   C664       1.0     0.254859      0.016851      0.186344     Biso  1.000000 C
   C665       1.0     0.229682      0.030372      0.180850     Biso  1.000000 C
   C666       1.0     0.150492      0.173399      0.228852     Biso  1.000000 C
   C667       1.0     0.175689      0.183830      0.241320     Biso  1.000000 C
   C668       1.0     0.191691      0.157570      0.286170     Biso  1.000000 C
   C669       1.0     0.140965      0.139476      0.270499     Biso  1.000000 C
   C670       1.0     0.116398      0.175697      0.593043     Biso  1.000000 C
   C671       1.0     0.157083      0.112567      0.312261     Biso  1.000000 C
   C672       1.0     0.236524      0.197372      0.593031     Biso  1.000000 C
   C673       1.0     0.215564      0.212291      0.548327     Biso  1.000000 C
   C674       1.0     0.197780      0.182511      0.523602     Biso  1.000000 C
   C675       1.0     0.239107      0.154143      0.608357     Biso  1.000000 C
   C676       1.0     0.220343      0.126695      0.582285     Biso  1.000000 C
   C677       1.0     0.199291      0.142530      0.542247     Biso  1.000000 C
   C678       1.0     0.073000      0.153928      0.551990     Biso  1.000000 C
   C679       1.0     0.182831      0.121297      0.324346     Biso  1.000000 C
   C680       1.0     0.214988      0.009407      0.122531     Biso  1.000000 C
   C681       1.0     0.059662      0.099070      0.808443     Biso  1.000000 C
   C682       1.0     0.088502      0.280798      0.058086     Biso  1.000000 C
   C683       1.0     0.947421      0.126977      0.465531     Biso  1.000000 C
   C684       1.0     0.961891      0.162479      0.455227     Biso  1.000000 C
   C685       1.0     0.948870      0.197879      0.428377     Biso  1.000000 C
   C686       1.0     0.958237      0.428867      0.374230     Biso  1.000000 C
   C687       1.0     0.980727      0.408072      0.358693     Biso  1.000000 C
   C688       1.0     0.984858      0.368606      0.398221     Biso  1.000000 C
   C689       1.0     0.937587      0.409112      0.412846     Biso  1.000000 C
   C690       1.0     0.922523      0.197533      0.406491     Biso  1.000000 C
   C691       1.0     0.939859      0.369218      0.447391     Biso  1.000000 C
   C692       1.0     0.059685      0.302179      0.592603     Biso  1.000000 C
   C693       1.0     0.042358      0.281917      0.649851     Biso  1.000000 C
   C694       1.0     0.018140      0.298795      0.667378     Biso  1.000000 C
   C695       1.0     0.052068      0.333779      0.548398     Biso  1.000000 C
   C696       1.0     0.027517      0.349108      0.557171     Biso  1.000000 C
   C697       1.0     0.010635      0.332788      0.616148     Biso  1.000000 C
   C698       1.0     0.952695      0.430101      0.001629     Biso  1.000000 C
   C699       1.0     0.963706      0.348604      0.441298     Biso  1.000000 C
   C700       1.0     0.062029      0.082125      0.891973     Biso  1.000000 C
   C701       1.0     0.909476      0.159756      0.410147     Biso  1.000000 C
   C702       1.0     0.018425      0.254726      0.333457     Biso  1.000000 C
   C703       1.0     0.099234      0.248804      0.104237     Biso  1.000000 C
   C704       1.0     0.088466      0.209726      0.102342     Biso  1.000000 C
   C705       1.0     0.066005      0.274776      0.012334     Biso  1.000000 C
   C706       1.0     0.055183      0.234509      0.011513     Biso  1.000000 C
   C707       1.0     0.065801      0.201824      0.058428     Biso  1.000000 C
   C708       1.0     0.046121      0.090155      0.383584     Biso  1.000000 C
   C709       1.0     0.020486      0.096195      0.363632     Biso  1.000000 C
   C710       1.0     0.922552      0.125376      0.437903     Biso  1.000000 C
   C711       1.0     0.012436      0.127998      0.310812     Biso  1.000000 C
   C712       1.0     0.056208      0.147912      0.286591     Biso  1.000000 C
   C713       1.0     0.030668      0.155014      0.272107     Biso  1.000000 C
   C714       1.0     0.068276      0.290286      0.351859     Biso  1.000000 C
   C715       1.0     0.062626      0.255627      0.395050     Biso  1.000000 C
   C716       1.0     0.037855      0.239595      0.387253     Biso  1.000000 C
   C717       1.0     0.051175      0.309681      0.298134     Biso  1.000000 C
   C718       1.0     0.025987      0.290881      0.288850     Biso  1.000000 C
   C719       1.0     0.064215      0.116030      0.341376     Biso  1.000000 C
   C720       1.0     0.981619      0.381814      0.935176     Biso  1.000000 C
   C721       1.0     0.223771      0.976111      0.074764     Biso  1.000000 C
   C722       1.0     0.915988      0.583908      0.170571     Biso  1.000000 C
   C723       1.0     0.788623      0.406934      0.657501     Biso  1.000000 C
   C724       1.0     0.768739      0.402344      0.715106     Biso  1.000000 C
   C725       1.0     0.768449      0.367371      0.768857     Biso  1.000000 C
   C726       1.0     0.743146      0.400576      0.242813     Biso  1.000000 C
   C727       1.0     0.725471      0.419091      0.184551     Biso  1.000000 C
   C728       1.0     0.732560      0.421675      0.096083     Biso  1.000000 C
   C729       1.0     0.766403      0.387224      0.208364     Biso  1.000000 C
   C730       1.0     0.788630      0.338625      0.764295     Biso  1.000000 C
   C731       1.0     0.771728      0.386781      0.118071     Biso  1.000000 C
   C732       1.0     0.737350      0.570281      0.868945     Biso  1.000000 C
   C733       1.0     0.739775      0.564449      0.960029     Biso  1.000000 C
   C734       1.0     0.753152      0.531406      0.996482     Biso  1.000000 C
   C735       1.0     0.748776      0.542174      0.816329     Biso  1.000000 C
   C736       1.0     0.761739      0.508212      0.851908     Biso  1.000000 C
   C737       1.0     0.764401      0.502117      0.940951     Biso  1.000000 C
   C738       1.0     0.817003      0.539815      0.268795     Biso  1.000000 C
   C739       1.0     0.754416      0.406298      0.064708     Biso  1.000000 C
   C740       1.0     0.827979      0.504397      0.229682     Biso  1.000000 C
   C741       1.0     0.807862      0.343180      0.703238     Biso  1.000000 C
   C742       1.0     0.698283      0.279788      0.767811     Biso  1.000000 C
   C743       1.0     0.740913      0.142602      0.391305     Biso  1.000000 C
   C744       1.0     0.727892      0.179127      0.421256     Biso  1.000000 C
   C745       1.0     0.771213      0.182644      0.316823     Biso  1.000000 C
   C746       1.0     0.759711      0.217941      0.349403     Biso  1.000000 C
   C747       1.0     0.738540      0.217258      0.399778     Biso  1.000000 C
   C748       1.0     0.709288      0.417648      0.478784     Biso  1.000000 C
   C749       1.0     0.733093      0.400900      0.477699     Biso  1.000000 C
   C750       1.0     0.807602      0.376547      0.648211     Biso  1.000000 C
   C751       1.0     0.737677      0.362253      0.514274     Biso  1.000000 C
   C752       1.0     0.693024      0.356103      0.544237     Biso  1.000000 C
   C753       1.0     0.717669      0.338664      0.546209     Biso  1.000000 C
   C754       1.0     0.661787      0.216585      0.789645     Biso  1.000000 C
   C755       1.0     0.655691      0.251739      0.748637     Biso  1.000000 C
   C756       1.0     0.673217      0.283088      0.735856     Biso  1.000000 C
   C757       1.0     0.686885      0.213371      0.823731     Biso  1.000000 C
   C758       1.0     0.704498      0.244086      0.813854     Biso  1.000000 C
   C759       1.0     0.688978      0.393692      0.506266     Biso  1.000000 C
   C760       1.0     0.248320      0.961189      0.083979     Biso  1.000000 C
   C761       1.0     0.830280      0.498754      0.141284     Biso  1.000000 C
   C762       1.0     0.807647      0.565050      0.127016     Biso  1.000000 C
   C763       1.0     0.835643      0.602135      0.463560     Biso  1.000000 C
   C764       1.0     0.858834      0.619031      0.488470     Biso  1.000000 C
   C765       1.0     0.845755      0.536112      0.530468     Biso  1.000000 C
   C766       1.0     0.869143      0.550343      0.555321     Biso  1.000000 C
   C767       1.0     0.875139      0.591583      0.536076     Biso  1.000000 C
   C768       1.0     0.982655      0.506459      0.553158     Biso  1.000000 C
   C769       1.0     0.986778      0.544412      0.512085     Biso  1.000000 C
   C770       1.0     0.829636      0.560565      0.485031     Biso  1.000000 C
   C771       1.0     0.968596      0.564656      0.461882     Biso  1.000000 C
   C772       1.0     0.938814      0.515535      0.518389     Biso  1.000000 C
   C773       1.0     0.943764      0.551001      0.465251     Biso  1.000000 C
   C774       1.0     0.929286      0.580794      0.000470     Biso  1.000000 C
   C775       1.0     0.918568      0.616921      0.034533     Biso  1.000000 C
   C776       1.0     0.911831      0.618234      0.119685     Biso  1.000000 C
   C777       1.0     0.933274      0.547714      0.051935     Biso  1.000000 C
   C778       1.0     0.926134      0.547911      0.136632     Biso  1.000000 C
   C779       1.0     0.958710      0.492186      0.554529     Biso  1.000000 C
   C780       1.0     0.806434      0.569301      0.216008     Biso  1.000000 C
   C781       1.0     0.925314      0.622943      0.761207     Biso  1.000000 C
   C782       1.0     0.959511      0.652918      0.841642     Biso  1.000000 C
   C783       1.0     0.820787      0.531109      0.090181     Biso  1.000000 C
   C784       1.0     0.873391      0.448205      0.722725     Biso  1.000000 C
   C785       1.0     0.887987      0.467563      0.786053     Biso  1.000000 C
   C786       1.0     0.880385      0.503994      0.822225     Biso  1.000000 C
   C787       1.0     0.850409      0.466365      0.697802     Biso  1.000000 C
   C788       1.0     0.840823      0.499627      0.746072     Biso  1.000000 C
   C789       1.0     0.856298      0.520420      0.804283     Biso  1.000000 C
   C790       1.0     0.936172      0.656269      0.799695     Biso  1.000000 C
   C791       1.0     0.780822      0.663992      0.763516     Biso  1.000000 C
   C792       1.0     0.814418      0.624150      0.708030     Biso  1.000000 C
   C793       1.0     0.796933      0.676425      0.829614     Biso  1.000000 C
   C794       1.0     0.821424      0.663956      0.836295     Biso  1.000000 C
   C795       1.0     0.830503      0.637650      0.772117     Biso  1.000000 C
   C796       1.0     0.971488      0.615368      0.848156     Biso  1.000000 C
   C797       1.0     0.961507      0.582507      0.803268     Biso  1.000000 C
   C798       1.0     0.937777      0.585182      0.764352     Biso  1.000000 C
   C799       1.0     0.790251      0.639939      0.703047     Biso  1.000000 C
   C800       1.0     0.762734      0.143800      0.340840     Biso  1.000000 C
   C801       1.0     0.945624      0.446561      0.920539     Biso  1.000000 C
   C802       1.0     0.977441      0.401989      0.857051     Biso  1.000000 C
   C803       1.0     0.361986      0.796951      0.012007     Biso  1.000000 C
   C804       1.0     0.358604      0.758789      0.973537     Biso  1.000000 C
   C805       1.0     0.307866      0.845265      0.615650     Biso  1.000000 C
   C806       1.0     0.317123      0.806057      0.604299     Biso  1.000000 C
   C807       1.0     0.317172      0.780652      0.677460     Biso  1.000000 C
   C808       1.0     0.299397      0.861088      0.693233     Biso  1.000000 C
   C809       1.0     0.299878      0.835052      0.762336     Biso  1.000000 C
   C810       1.0     0.367628      0.801190      0.098367     Biso  1.000000 C
   C811       1.0     0.308689      0.795062      0.757627     Biso  1.000000 C
   C812       1.0     0.209014      0.687465      0.916762     Biso  1.000000 C
   C813       1.0     0.228306      0.715093      0.907816     Biso  1.000000 C
   C814       1.0     0.236935      0.643733      0.001013     Biso  1.000000 C
   C815       1.0     0.256813      0.669838      0.989330     Biso  1.000000 C
   C816       1.0     0.251885      0.707042      0.945309     Biso  1.000000 C
   C817       1.0     0.310715      0.860933      0.217999     Biso  1.000000 C
   C818       1.0     0.316988      0.820221      0.232878     Biso  1.000000 C
   C819       1.0     0.213878      0.652154      0.968043     Biso  1.000000 C
   C820       1.0     0.302160      0.791414      0.192138     Biso  1.000000 C
   C821       1.0     0.362510      0.723753      0.021204     Biso  1.000000 C
   C822       1.0     0.368951      0.766961      0.146937     Biso  1.000000 C
   C823       1.0     0.373081      0.697963      0.461307     Biso  1.000000 C
   C824       1.0     0.357337      0.776986      0.414467     Biso  1.000000 C
   C825       1.0     0.379398      0.770627      0.458015     Biso  1.000000 C
   C826       1.0     0.388252      0.732350      0.484527     Biso  1.000000 C
   C827       1.0     0.505926      0.747127      0.615050     Biso  1.000000 C
   C828       1.0     0.493409      0.713356      0.655159     Biso  1.000000 C
   C829       1.0     0.467486      0.717392      0.679776     Biso  1.000000 C
   C830       1.0     0.368988      0.727386      0.109444     Biso  1.000000 C
   C831       1.0     0.492813      0.783066      0.604777     Biso  1.000000 C
   C832       1.0     0.454103      0.753561      0.667449     Biso  1.000000 C
   C833       1.0     0.391263      0.894781      0.714742     Biso  1.000000 C
   C834       1.0     0.377219      0.866422      0.673836     Biso  1.000000 C
   C835       1.0     0.377261      0.826307      0.707219     Biso  1.000000 C
   C836       1.0     0.402400      0.889562      0.793110     Biso  1.000000 C
   C837       1.0     0.401313      0.850996      0.832690     Biso  1.000000 C
   C838       1.0     0.389533      0.819415      0.788190     Biso  1.000000 C
   C839       1.0     0.467555      0.786714      0.633931     Biso  1.000000 C
   C840       1.0     0.350542      0.703606      0.417319     Biso  1.000000 C
   C841       1.0     0.288604      0.873090      0.177188     Biso  1.000000 C
   C842       1.0     0.281095      0.803304      0.145859     Biso  1.000000 C
   C843       1.0     0.204767      0.911134      0.415634     Biso  1.000000 C
   C844       1.0     0.256526      0.902003      0.429659     Biso  1.000000 C
   C845       1.0     0.241730      0.879185      0.482453     Biso  1.000000 C
   C846       1.0     0.215660      0.885235      0.479818     Biso  1.000000 C
   C847       1.0     0.116129      0.964042      0.761704     Biso  1.000000 C
   C848       1.0     0.107578      0.930974      0.715476     Biso  1.000000 C
   C849       1.0     0.125920      0.901303      0.694592     Biso  1.000000 C
   C850       1.0     0.220514      0.934210      0.359025     Biso  1.000000 C
   C851       1.0     0.140899      0.969661      0.780719     Biso  1.000000 C
   C852       1.0     0.151278      0.904863      0.710327     Biso  1.000000 C
   C853       1.0     0.127245      0.744276      0.757302     Biso  1.000000 C
   C854       1.0     0.117026      0.778402      0.799778     Biso  1.000000 C
   C855       1.0     0.133412      0.809663      0.824969     Biso  1.000000 C
   C856       1.0     0.152702      0.741065      0.744278     Biso  1.000000 C
   C857       1.0     0.168542      0.772629      0.761226     Biso  1.000000 C
   C858       1.0     0.251084      0.309772      0.714009     Biso  1.000000 C
   C859       1.0     0.158461      0.940493      0.753658     Biso  1.000000 C
   C860       1.0     0.273813      0.842491      0.137876     Biso  1.000000 C
   C861       1.0     0.247862      0.929552      0.369125     Biso  1.000000 C
   C862       1.0     0.200224      0.733496      0.580773     Biso  1.000000 C
   C863       1.0     0.267708      0.665745      0.351610     Biso  1.000000 C
   C864       1.0     0.271481      0.705917      0.377382     Biso  1.000000 C
   C865       1.0     0.257896      0.739349      0.337248     Biso  1.000000 C
   C866       1.0     0.252320      0.657827      0.280619     Biso  1.000000 C
   C867       1.0     0.239725      0.688624      0.237160     Biso  1.000000 C
   C868       1.0     0.242343      0.729309      0.268234     Biso  1.000000 C
   C869       1.0     0.123112      0.855930      0.234225     Biso  1.000000 C
   C870       1.0     0.213214      0.767322      0.544250     Biso  1.000000 C
   C871       1.0     0.147390      0.872411      0.220857     Biso  1.000000 C
   C872       1.0     0.119826      0.816334      0.272988     Biso  1.000000 C
   C873       1.0     0.141861      0.794022      0.297904     Biso  1.000000 C
   C874       1.0     0.166384      0.811840      0.285290     Biso  1.000000 C
   C875       1.0     0.236064      0.720727      0.675437     Biso  1.000000 C
   C876       1.0     0.249230      0.751678      0.639897     Biso  1.000000 C
   C877       1.0     0.238493      0.773684      0.574093     Biso  1.000000 C
   C878       1.0     0.211952      0.711387      0.644133     Biso  1.000000 C
   C879       1.0     0.168090      0.849717      0.240376     Biso  1.000000 C
   C880       1.0     0.958961      0.433816      0.850677     Biso  1.000000 C
   C881       1.0     0.342321      0.742930      0.391898     Biso  1.000000 C
   C882       1.0     0.433729      0.729239      0.294254     Biso  1.000000 C
   C883       1.0     0.117529      0.407880      0.651510     Biso  1.000000 C
   C884       1.0     0.142804      0.334795      0.612747     Biso  1.000000 C
   C885       1.0     0.153235      0.360294      0.679112     Biso  1.000000 C
   C886       1.0     0.140431      0.396521      0.696640     Biso  1.000000 C
   C887       1.0     0.163914      0.615265      0.660768     Biso  1.000000 C
   C888       1.0     0.147684      0.597093      0.717582     Biso  1.000000 C
   C889       1.0     0.151988      0.559355      0.756478     Biso  1.000000 C
   C890       1.0     0.108559      0.382800      0.587977     Biso  1.000000 C
   C891       1.0     0.187028      0.596880      0.643553     Biso  1.000000 C
   C892       1.0     0.174095      0.539123      0.732143     Biso  1.000000 C
   C893       1.0     0.203959      0.505883      0.105864     Biso  1.000000 C
   C894       1.0     0.202287      0.470101      0.057958     Biso  1.000000 C
   C895       1.0     0.208886      0.469513      0.972803     Biso  1.000000 C
   C896       1.0     0.211652      0.541922      0.061857     Biso  1.000000 C
   C897       1.0     0.218828      0.541716      0.975394     Biso  1.000000 C
   C898       1.0     0.215091      0.505622      0.931418     Biso  1.000000 C
   C899       1.0     0.191527      0.557236      0.677364     Biso  1.000000 C
   C900       1.0     0.278675      0.607290      0.620365     Biso  1.000000 C
   C901       1.0     0.121544      0.347091      0.564139     Biso  1.000000 C
   C902       1.0     0.141087      0.328858      0.912416     Biso  1.000000 C
   C903       1.0     0.041248      0.519286      0.686508     Biso  1.000000 C
   C904       1.0     0.055078      0.485605      0.670952     Biso  1.000000 C
   C905       1.0     0.054774      0.452423      0.723280     Biso  1.000000 C
   C906       1.0     0.027304      0.520674      0.760990     Biso  1.000000 C
   C907       1.0     0.023782      0.486139      0.815570     Biso  1.000000 C
   C908       1.0     0.039189      0.452805      0.798017     Biso  1.000000 C
   C909       1.0     0.023283      0.440281      0.153751     Biso  1.000000 C
   C910       1.0     0.142517      0.370213      0.933096     Biso  1.000000 C
   C911       1.0     0.031964      0.474240      0.106337     Biso  1.000000 C
   C912       1.0     0.031930      0.400676      0.130430     Biso  1.000000 C
   C913       1.0     0.048367      0.394629      0.061986     Biso  1.000000 C
   C914       1.0     0.056295      0.428640      0.015312     Biso  1.000000 C
   C915       1.0     0.179583      0.318727      0.992692     Biso  1.000000 C
   C916       1.0     0.181171      0.359421      0.014011     Biso  1.000000 C
   C917       1.0     0.161939      0.387185      0.987185     Biso  1.000000 C
   C918       1.0     0.160534      0.303947      0.938743     Biso  1.000000 C
   C919       1.0     0.046975      0.468112      0.033927     Biso  1.000000 C
   C920       1.0     0.443332      0.715466      0.372495     Biso  1.000000 C
   C921       1.0     0.275080      0.624981      0.701662     Biso  1.000000 C
   C922       1.0     0.276427      0.566193      0.609786     Biso  1.000000 C
   C923       1.0     0.339559      0.576524      0.495297     Biso  1.000000 C
   C924       1.0     0.337962      0.596811      0.413382     Biso  1.000000 C
   C925       1.0     0.357417      0.588823      0.356485     Biso  1.000000 C
   C926       1.0     0.357469      0.546413      0.512264     Biso  1.000000 C
   C927       1.0     0.375244      0.537986      0.448444     Biso  1.000000 C
   C928       1.0     0.376175      0.560522      0.372731     Biso  1.000000 C
   C929       1.0     0.484458      0.502726      0.450613     Biso  1.000000 C
   C930       1.0     0.370013      0.475008      0.241422     Biso  1.000000 C
   C931       1.0     0.467388      0.516020      0.511166     Biso  1.000000 C
   C932       1.0     0.485127      0.518564      0.368941     Biso  1.000000 C
   C933       1.0     0.467595      0.551283      0.352249     Biso  1.000000 C
   C934       1.0     0.451218      0.565550      0.415788     Biso  1.000000 C
   C935       1.0     0.459422      0.791517      0.299627     Biso  1.000000 C
   C936       1.0     0.470156      0.775873      0.376967     Biso  1.000000 C
   C937       1.0     0.462971      0.737126      0.409962     Biso  1.000000 C
   C938       1.0     0.441067      0.767231      0.259288     Biso  1.000000 C
   C939       1.0     0.449758      0.546334      0.493141     Biso  1.000000 C
   C940       1.0     0.273433      0.598615      0.772035     Biso  1.000000 C
   C941       1.0     0.386513      0.444587      0.208543     Biso  1.000000 C
   C942       1.0     0.355389      0.464946      0.313358     Biso  1.000000 C
   C943       1.0     0.273529      0.539257      0.677811     Biso  1.000000 C
   C944       1.0     0.272270      0.555280      0.760262     Biso  1.000000 C
   C945       1.0     0.271192      0.384732      0.041047     Biso  1.000000 C
   C946       1.0     0.286714      0.388455      0.967220     Biso  1.000000 C
   C947       1.0     0.295777      0.426793      0.943369     Biso  1.000000 C
   C948       1.0     0.264539      0.420486      0.083219     Biso  1.000000 C
   C949       1.0     0.274661      0.458569      0.062931     Biso  1.000000 C
   C950       1.0     0.387468      0.405670      0.240740     Biso  1.000000 C
   C951       1.0     0.290477      0.461702      0.991058     Biso  1.000000 C
   C952       1.0     0.322844      0.630069      0.090040     Biso  1.000000 C
   C953       1.0     0.331292      0.592423      0.062145     Biso  1.000000 C
   C954       1.0     0.303189      0.600461      0.211854     Biso  1.000000 C
   C955       1.0     0.310658      0.561648      0.182394     Biso  1.000000 C
   C956       1.0     0.324985      0.557915      0.107804     Biso  1.000000 C
   C957       1.0     0.373537      0.396794      0.313837     Biso  1.000000 C
   C958       1.0     0.357420      0.426560      0.352019     Biso  1.000000 C
   C959       1.0     0.307692      0.632883      0.160630     Biso  1.000000 C
   C960       1.0     0.678343      0.255257      0.302990     Biso  1.000000 C
   C961       1.0     0.968933      0.396922      0.011489     Biso  1.000000 C
   C962       1.0     0.687542      0.539711      0.122601     Biso  1.000000 C
   C963       1.0     0.831829      0.677753      0.099139     Biso  1.000000 C
   C964       1.0     0.816193      0.703967      0.150497     Biso  1.000000 C
   C965       1.0     0.813594      0.700577      0.240229     Biso  1.000000 C
   C966       1.0     0.762020      0.880119      0.193152     Biso  1.000000 C
   C967       1.0     0.778881      0.891060      0.257074     Biso  1.000000 C
   C968       1.0     0.797728      0.863086      0.281870     Biso  1.000000 C
   C969       1.0     0.763780      0.840944      0.151531     Biso  1.000000 C
   C970       1.0     0.828684      0.670487      0.281927     Biso  1.000000 C
   C971       1.0     0.784048      0.816082      0.168529     Biso  1.000000 C
   C972       1.0     0.879767      0.762291      0.992909     Biso  1.000000 C
   C973       1.0     0.860068      0.791014      0.989221     Biso  1.000000 C
   C974       1.0     0.852908      0.814241      0.060222     Biso  1.000000 C
   C975       1.0     0.890738      0.754735      0.071590     Biso  1.000000 C
   C976       1.0     0.885537      0.778866      0.142017     Biso  1.000000 C
   C977       1.0     0.866711      0.808823      0.134641     Biso  1.000000 C
   C978       1.0     0.855870      0.989001      0.065484     Biso  1.000000 C
   C979       1.0     0.800984      0.826477      0.232247     Biso  1.000000 C
   C980       1.0     0.867127      0.994626      0.144799     Biso  1.000000 C
   C981       1.0     0.845655      0.646223      0.231928     Biso  1.000000 C
   C982       1.0     0.739356      0.701059      0.271431     Biso  1.000000 C
   C983       1.0     0.673781      0.566994      0.073576     Biso  1.000000 C
   C984       1.0     0.694499      0.546249      0.209327     Biso  1.000000 C
   C985       1.0     0.664050      0.601774      0.110637     Biso  1.000000 C
   C986       1.0     0.667615      0.607506      0.199291     Biso  1.000000 C
   C987       1.0     0.682863      0.579951      0.248543     Biso  1.000000 C
   C988       1.0     0.754878      0.497398      0.458385     Biso  1.000000 C
   C989       1.0     0.744473      0.527819      0.508269     Biso  1.000000 C
   C990       1.0     0.846742      0.649613      0.142981     Biso  1.000000 C
   C991       1.0     0.737508      0.565101      0.472525     Biso  1.000000 C
   C992       1.0     0.750514      0.539639      0.332724     Biso  1.000000 C
   C993       1.0     0.742402      0.572467      0.384069     Biso  1.000000 C
   C994       1.0     0.705977      0.750793      0.182962     Biso  1.000000 C
   C995       1.0     0.708523      0.753561      0.271380     Biso  1.000000 C
   C996       1.0     0.724144      0.728032      0.315560     Biso  1.000000 C
   C997       1.0     0.721084      0.723083      0.136849     Biso  1.000000 C
   C998       1.0     0.736794      0.694992      0.182292     Biso  1.000000 C
   C999       1.0     0.756768      0.500943      0.367907     Biso  1.000000 C
   C1000      1.0     0.636490      0.567937      0.505213     Biso  1.000000 C
   C1001      1.0     0.880489      0.960807      0.177303     Biso  1.000000 C
   C1002      1.0     0.872102      0.920798      0.050147     Biso  1.000000 C
   C1003      1.0     0.065343      0.960485      0.202098     Biso  1.000000 C
   C1004      1.0     0.025030      0.004652      0.262836     Biso  1.000000 C
   C1005      1.0     0.025457      0.962462      0.281085     Biso  1.000000 C
   C1006      1.0     0.046587      0.941618      0.255441     Biso  1.000000 C
   C1007      1.0     0.093324      0.797937      0.589783     Biso  1.000000 C
   C1008      1.0     0.110602      0.819748      0.537971     Biso  1.000000 C
   C1009      1.0     0.102326      0.853228      0.487028     Biso  1.000000 C
   C1010      1.0     0.063721      0.002235      0.177960     Biso  1.000000 C
   C1011      1.0     0.067392      0.811603      0.593598     Biso  1.000000 C
   C1012      1.0     0.076167      0.864906      0.490920     Biso  1.000000 C
   C1013      1.0     0.143540      0.998991      0.360409     Biso  1.000000 C
   C1014      1.0     0.118578      0.005825      0.331818     Biso  1.000000 C
   C1015      1.0     0.099652      0.991467      0.383795     Biso  1.000000 C
   C1016      1.0     0.147927      0.984568      0.442504     Biso  1.000000 C
   C1017      1.0     0.128417      0.968888      0.496389     Biso  1.000000 C
   C1018      1.0     0.103995      0.972512      0.465646     Biso  1.000000 C
   C1019      1.0     0.059506      0.844192      0.544978     Biso  1.000000 C
   C1020      1.0     0.859137      0.952677      0.016727     Biso  1.000000 C
   C1021      1.0     0.043854      0.023692      0.213647     Biso  1.000000 C
   C1022      1.0     0.050438      0.907986      0.999002     Biso  1.000000 C
   C1023      1.0     0.966481      0.855590      0.472729     Biso  1.000000 C
   C1024      1.0     0.955612      0.823339      0.429040     Biso  1.000000 C
   C1025      1.0     0.949961      0.827159      0.343430     Biso  1.000000 C
   C1026      1.0     0.970736      0.892867      0.429404     Biso  1.000000 C
   C1027      1.0     0.963860      0.896936      0.340712     Biso  1.000000 C
   C1028      1.0     0.952488      0.862989      0.297209     Biso  1.000000 C
   C1029      1.0     0.948671      0.753410      0.944862     Biso  1.000000 C
   C1030      1.0     0.050772      0.879807      0.066016     Biso  1.000000 C
   C1031      1.0     0.955332      0.738612      0.028750     Biso  1.000000 C
   C1032      1.0     0.951938      0.795708      0.928004     Biso  1.000000 C
   C1033      1.0     0.962496      0.820054      0.990420     Biso  1.000000 C
   C1034      1.0     0.969512      0.806124      0.070314     Biso  1.000000 C
   C1035      1.0     0.091721      0.884680      0.951396     Biso  1.000000 C
   C1036      1.0     0.093008      0.860169      0.020390     Biso  1.000000 C
   C1037      1.0     0.072547      0.856042      0.074011     Biso  1.000000 C
   C1038      1.0     0.070548      0.911158      0.939981     Biso  1.000000 C
   C1039      1.0     0.966711      0.764302      0.088783     Biso  1.000000 C
   C1040      1.0     0.619489      0.597948      0.531501     Biso  1.000000 C
   C1041      1.0     0.609027      0.594909      0.614170     Biso  1.000000 C
   C1042      1.0     0.646313      0.540697      0.567361     Biso  1.000000 C
   C1043      1.0     0.384355      0.305539      0.709912     Biso  1.000000 C
   C1044      1.0     0.465279      0.397137      0.480922     Biso  1.000000 C
   C1045      1.0     0.441836      0.395363      0.441240     Biso  1.000000 C
   C1046      1.0     0.419921      0.398332      0.488910     Biso  1.000000 C
   C1047      1.0     0.467715      0.400512      0.568682     Biso  1.000000 C
   C1048      1.0     0.446077      0.397295      0.621629     Biso  1.000000 C
   C1049      1.0     0.421715      0.398896      0.581469     Biso  1.000000 C
   C1050      1.0     0.373119      0.331969      0.772787     Biso  1.000000 C
   C1051      1.0     0.390689      0.410194      0.991735     Biso  1.000000 C
   C1052      1.0     0.370236      0.434323      0.858149     Biso  1.000000 C
   C1053      1.0     0.413421      0.413630      0.951262     Biso  1.000000 C
   C1054      1.0     0.415562      0.429198      0.867822     Biso  1.000000 C
   C1055      1.0     0.394499      0.439283      0.818001     Biso  1.000000 C
   C1056      1.0     0.345553      0.640376      0.732602     Biso  1.000000 C
   C1057      1.0     0.340879      0.610310      0.794992     Biso  1.000000 C
   C1058      1.0     0.358189      0.578438      0.805406     Biso  1.000000 C
   C1059      1.0     0.368853      0.419449      0.943490     Biso  1.000000 C
   C1060      1.0     0.367304      0.635691      0.676107     Biso  1.000000 C
   C1061      1.0     0.373571      0.319885      0.859635     Biso  1.000000 C
   C1062      1.0     0.394480      0.255136      0.817210     Biso  1.000000 C
   C1063      1.0     0.237773      0.380599      0.734778     Biso  1.000000 C
   C1064      1.0     0.674097      0.212352      0.292857     Biso  1.000000 C
   C1065      1.0     0.247246      0.349675      0.679834     Biso  1.000000 C
   C1066      1.0     0.308574      0.481142      0.466495     Biso  1.000000 C
   C1067      1.0     0.299678      0.451540      0.408648     Biso  1.000000 C
   C1068      1.0     0.296605      0.411192      0.439422     Biso  1.000000 C
   C1069      1.0     0.313121      0.470426      0.550841     Biso  1.000000 C
   C1070      1.0     0.394557      0.267644      0.732513     Biso  1.000000 C
   C1071      1.0     0.310815      0.428510      0.574858     Biso  1.000000 C
   C1072      1.0     0.309539      0.175818      0.612377     Biso  1.000000 C
   C1073      1.0     0.314393      0.199631      0.685391     Biso  1.000000 C
   C1074      1.0     0.320832      0.240753      0.676624     Biso  1.000000 C
   C1075      1.0     0.313577      0.192563      0.532095     Biso  1.000000 C
   C1076      1.0     0.320551      0.234549      0.521930     Biso  1.000000 C
   C1077      1.0     0.323430      0.259372      0.592660     Biso  1.000000 C
   C1078      1.0     0.384890      0.282066      0.881840     Biso  1.000000 C
   C1079      1.0     0.299959      0.399175      0.522919     Biso  1.000000 C
   C1080      1.0     0.385184      0.606381      0.688556     Biso  1.000000 C
   C1081      1.0     0.380432      0.575363      0.751438     Biso  1.000000 C
   C1082      1.0     0.491773      0.563576      0.680561     Biso  1.000000 C
   C1083      1.0     0.561831      0.590130      0.062464     Biso  1.000000 C
   C1084      1.0     0.554403      0.550240      0.076985     Biso  1.000000 C
   C1085      1.0     0.563047      0.393468      0.164911     Biso  1.000000 C
   C1086      1.0     0.582465      0.416144      0.132670     Biso  1.000000 C
   C1087      1.0     0.584562      0.455255      0.158875     Biso  1.000000 C
   C1088      1.0     0.543476      0.409682      0.214189     Biso  1.000000 C
   C1089      1.0     0.548524      0.448817      0.249430     Biso  1.000000 C
   C1090      1.0     0.579710      0.600507      0.998649     Biso  1.000000 C
   C1091      1.0     0.568655      0.472533      0.220002     Biso  1.000000 C
   C1092      1.0     0.635630      0.399751      0.355114     Biso  1.000000 C
   C1093      1.0     0.623246      0.436184      0.376578     Biso  1.000000 C
   C1094      1.0     0.652763      0.435108      0.229324     Biso  1.000000 C
   C1095      1.0     0.641317      0.471757      0.257770     Biso  1.000000 C
   C1096      1.0     0.626864      0.472715      0.333981     Biso  1.000000 C
   C1097      1.0     0.616598      0.563567      0.669739     Biso  1.000000 C
   C1098      1.0     0.637419      0.538699      0.654572     Biso  1.000000 C
   C1099      1.0     0.649461      0.400090      0.278820     Biso  1.000000 C
   C1100      1.0     0.561228      0.519604      0.018740     Biso  1.000000 C
   C1101      1.0     0.577948      0.527640      0.950618     Biso  1.000000 C
   C1102      1.0     0.587975      0.567351      0.941780     Biso  1.000000 C
   C1103      1.0     0.478835      0.599033      0.691644     Biso  1.000000 C
   C1104      1.0     0.458231      0.601744      0.749594     Biso  1.000000 C
   C1105      1.0     0.485076      0.528073      0.725015     Biso  1.000000 C
   C1106      1.0     0.464565      0.530590      0.784209     Biso  1.000000 C
   C1107      1.0     0.450881      0.566311      0.796332     Biso  1.000000 C
   C1108      1.0     0.446969      0.723402      0.971623     Biso  1.000000 C
   C1109      1.0     0.466916      0.709071      0.926154     Biso  1.000000 C
   C1110      1.0     0.469053      0.666764      0.918874     Biso  1.000000 C
   C1111      1.0     0.429789      0.698749      0.014003     Biso  1.000000 C
   C1112      1.0     0.433492      0.655498      0.010240     Biso  1.000000 C
   C1113      1.0     0.454629      0.640628      0.966939     Biso  1.000000 C
   C1114      1.0     0.467655      0.433965      0.088024     Biso  1.000000 C
   C1115      1.0     0.458399      0.464516      0.143479     Biso  1.000000 C
   C1116      1.0     0.465859      0.505934      0.133410     Biso  1.000000 C
   C1117      1.0     0.484650      0.445103      0.023181     Biso  1.000000 C
   C1118      1.0     0.492868      0.485217      0.016088     Biso  1.000000 C
   C1119      1.0     0.483823      0.514340      0.073915     Biso  1.000000 C
   C1120      1.0     0.570141      0.111415      0.061325     Biso  1.000000 C
   C1121      1.0     0.561651      0.139585      0.124158     Biso  1.000000 C
   C1122      1.0     0.882181      0.924534      0.130481     Biso  1.000000 C
   C1123      1.0     0.550335      0.127231      0.198391     Biso  1.000000 C
   C1124      1.0     0.458761      0.210269      0.761047     Biso  1.000000 C
   C1125      1.0     0.460870      0.251939      0.759286     Biso  1.000000 C
   C1126      1.0     0.462106      0.273900      0.680886     Biso  1.000000 C
   C1127      1.0     0.463557      0.185989      0.687892     Biso  1.000000 C
   C1128      1.0     0.466830      0.208453      0.614183     Biso  1.000000 C
   C1129      1.0     0.463577      0.251072      0.608561     Biso  1.000000 C
   C1130      1.0     0.567475      0.359954      0.384056     Biso  1.000000 C
   C1131      1.0     0.472302      0.266203      0.301892     Biso  1.000000 C
   C1132      1.0     0.549638      0.383243      0.434049     Biso  1.000000 C
   C1133      1.0     0.565381      0.316416      0.385345     Biso  1.000000 C
   C1134      1.0     0.548952      0.297785      0.442931     Biso  1.000000 C
   C1135      1.0     0.532422      0.319106      0.497920     Biso  1.000000 C
   C1136      1.0     0.571276      0.214196      0.885037     Biso  1.000000 C
   C1137      1.0     0.582284      0.249689      0.858844     Biso  1.000000 C
   C1138      1.0     0.567829      0.274958      0.807971     Biso  1.000000 C
   C1139      1.0     0.533249      0.225064      0.799331     Biso  1.000000 C
   C1140      1.0     0.532379      0.361898      0.488993     Biso  1.000000 C
   C1141      1.0     0.544328      0.264393      0.775180     Biso  1.000000 C
   C1142      1.0     0.488255      0.294607      0.260220     Biso  1.000000 C
   C1143      1.0     0.476973      0.224242      0.292270     Biso  1.000000 C
   C1144      1.0     0.415396      0.139382      0.480290     Biso  1.000000 C
   C1145      1.0     0.389956      0.145683      0.455558     Biso  1.000000 C
   C1146      1.0     0.437652      0.175621      0.009714     Biso  1.000000 C
   C1147      1.0     0.412969      0.189731      0.016527     Biso  1.000000 C
   C1148      1.0     0.402300      0.195286      0.098182     Biso  1.000000 C
   C1149      1.0     0.450304      0.163237      0.082588     Biso  1.000000 C
   C1150      1.0     0.439964      0.168517      0.163724     Biso  1.000000 C
   C1151      1.0     0.507262      0.281644      0.206922     Biso  1.000000 C
   C1152      1.0     0.415950      0.186383      0.171994     Biso  1.000000 C
   C1153      1.0     0.368442      0.315767      0.129301     Biso  1.000000 C
   C1154      1.0     0.389236      0.293740      0.158097     Biso  1.000000 C
   C1155      1.0     0.345818      0.303262      0.266888     Biso  1.000000 C
   C1156      1.0     0.367334      0.279106      0.292072     Biso  1.000000 C
   C1157      1.0     0.389151      0.274976      0.242558     Biso  1.000000 C
   C1158      1.0     0.508915      0.240877      0.184864     Biso  1.000000 C
   C1159      1.0     0.495121      0.211643      0.233242     Biso  1.000000 C
   C1160      1.0     0.345766      0.315355      0.178087     Biso  1.000000 C
   C1161      1.0     0.460760      0.334055      0.921509     Biso  1.000000 C
   C1162      1.0     0.461701      0.350266      0.835733     Biso  1.000000 C
   C1163      1.0     0.484927      0.361258      0.799937     Biso  1.000000 C
   C1164      1.0     0.607156      0.271446      0.072648     Biso  1.000000 C
   C1165      1.0     0.611322      0.311328      0.102725     Biso  1.000000 C
   C1166      1.0     0.632182      0.333885      0.079254     Biso  1.000000 C
   C1167      1.0     0.624722      0.254144      0.013280     Biso  1.000000 C
   C1168      1.0     0.645126      0.278002      0.983172     Biso  1.000000 C
   C1169      1.0     0.648968      0.317744      0.017775     Biso  1.000000 C
   C1170      1.0     0.743430      0.208155      0.011234     Biso  1.000000 C
   C1171      1.0     0.671118      0.422396      0.840506     Biso  1.000000 C
   C1172      1.0     0.754539      0.244838      0.039847     Biso  1.000000 C
   C1173      1.0     0.717758      0.197685      0.021844     Biso  1.000000 C
   C1174      1.0     0.701547      0.226140      0.061171     Biso  1.000000 C
   C1175      1.0     0.711097      0.264260      0.093830     Biso  1.000000 C
   C1176      1.0     0.630748      0.221649      0.331046     Biso  1.000000 C
   C1177      1.0     0.635116      0.263696      0.344107     Biso  1.000000 C
   C1178      1.0     0.658201      0.280255      0.323886     Biso  1.000000 C
   C1179      1.0     0.650140      0.195686      0.303411     Biso  1.000000 C
   C1180      1.0     0.737504      0.271064      0.082001     Biso  1.000000 C
   C1181      1.0     0.672484      0.462560      0.870214     Biso  1.000000 C
   C1182      1.0     0.687295      0.492841      0.826928     Biso  1.000000 C
   C1183      1.0     0.683725      0.413615      0.762655     Biso  1.000000 C
   C1184      1.0     0.484192      0.329025      0.966276     Biso  1.000000 C
   C1185      1.0     0.507110      0.334610      0.924087     Biso  1.000000 C
   C1186      1.0     0.507933      0.353990      0.844653     Biso  1.000000 C
   C1187      1.0     0.557550      0.536106      0.651012     Biso  1.000000 C
   C1188      1.0     0.547655      0.528073      0.729852     Biso  1.000000 C
   C1189      1.0     0.552977      0.491688      0.774051     Biso  1.000000 C
   C1190      1.0     0.571116      0.505771      0.612862     Biso  1.000000 C
   C1191      1.0     0.574594      0.468403      0.650655     Biso  1.000000 C
   C1192      1.0     0.565834      0.461286      0.732595     Biso  1.000000 C
   C1193      1.0     0.619802      0.337733      0.589094     Biso  1.000000 C
   C1194      1.0     0.612831      0.320828      0.668170     Biso  1.000000 C
   C1195      1.0     0.614595      0.342027      0.744949     Biso  1.000000 C
   C1196      1.0     0.624688      0.380035      0.586694     Biso  1.000000 C
   C1197      1.0     0.624447      0.404029      0.660979     Biso  1.000000 C
   C1198      1.0     0.620606      0.384313      0.740827     Biso  1.000000 C
   C1199      1.0     0.698068      0.482467      0.747303     Biso  1.000000 C
   C1200      1.0     0.697478      0.442616      0.714870     Biso  1.000000 C
   C1201      1.0     0.422530      0.144570      0.565581     Biso  1.000000 C
   C1202      1.0     0.372380      0.156218      0.518376     Biso  1.000000 C
   C1203      1.0     0.547256      0.199565      0.852782     Biso  1.000000 C
   C1204      1.0     0.406046      0.159025      0.628048     Biso  1.000000 C
   C1205      1.0     0.411814      0.003833      0.570385     Biso  1.000000 C
   C1206      1.0     0.408275      0.868053      0.316721     Biso  1.000000 C
   C1207      1.0     0.414030      0.866355      0.403996     Biso  1.000000 C
   C1208      1.0     0.400651      0.892506      0.458634     Biso  1.000000 C
   C1209      1.0     0.388314      0.893719      0.284109     Biso  1.000000 C
   C1210      1.0     0.373844      0.914536      0.341019     Biso  1.000000 C
   C1211      1.0     0.380724      0.916319      0.429251     Biso  1.000000 C
   C1212      1.0     0.401053      0.038566      0.605250     Biso  1.000000 C
   C1213      1.0     0.270810      0.060593      0.474203     Biso  1.000000 C
   C1214      1.0     0.289778      0.996879      0.503018     Biso  1.000000 C
   C1215      1.0     0.291219      0.080876      0.508340     Biso  1.000000 C
   C1216      1.0     0.312901      0.058412      0.534558     Biso  1.000000 C
   C1217      1.0     0.311378      0.015235      0.533090     Biso  1.000000 C
   C1218      1.0     0.334554      0.908387      0.963915     Biso  1.000000 C
   C1219      1.0     0.356246      0.929097      0.936306     Biso  1.000000 C
   C1220      1.0     0.354786      0.951694      0.859405     Biso  1.000000 C
   C1221      1.0     0.268217      0.019110      0.479537     Biso  1.000000 C
   C1222      1.0     0.311291      0.914563      0.922645     Biso  1.000000 C
   C1223      1.0     0.402019      0.045285      0.694790     Biso  1.000000 C
   C1224      1.0     0.424760      0.983028      0.713881     Biso  1.000000 C
   C1225      1.0     0.567402      0.069189      0.077440     Biso  1.000000 C
   C1226      1.0     0.381314      0.166167      0.604216     Biso  1.000000 C
   C1227      1.0     0.547098      0.086371      0.217418     Biso  1.000000 C
   C1228      1.0     0.526298      0.114729      0.631953     Biso  1.000000 C
   C1229      1.0     0.515685      0.138960      0.567355     Biso  1.000000 C
   C1230      1.0     0.505928      0.119675      0.492483     Biso  1.000000 C
   C1231      1.0     0.529204      0.074278      0.621157     Biso  1.000000 C
   C1232      1.0     0.424170      0.975471      0.624200     Biso  1.000000 C
   C1233      1.0     0.519343      0.054070      0.547696     Biso  1.000000 C
   C1234      1.0     0.482964      0.902928      0.486588     Biso  1.000000 C
   C1235      1.0     0.487497      0.932102      0.548117     Biso  1.000000 C
   C1236      1.0     0.478194      0.971347      0.535962     Biso  1.000000 C
   C1237      1.0     0.472078      0.915588      0.408067     Biso  1.000000 C
   C1238      1.0     0.463364      0.953908      0.394712     Biso  1.000000 C
   C1239      1.0     0.466890      0.984222      0.458730     Biso  1.000000 C
   C1240      1.0     0.414562      0.018231      0.748018     Biso  1.000000 C
   C1241      1.0     0.507456      0.076982      0.482970     Biso  1.000000 C
   C1242      1.0     0.310545      0.937485      0.844398     Biso  1.000000 C
   C1243      1.0     0.554827      0.058382      0.155040     Biso  1.000000 C
   C1244      1.0     0.382806      0.106799      0.894755     Biso  1.000000 C
   C1245      1.0     0.288336      0.211433      0.055933     Biso  1.000000 C
   C1246      1.0     0.338758      0.195696      0.997133     Biso  1.000000 C
   C1247      1.0     0.322481      0.164317      0.029172     Biso  1.000000 C
   C1248      1.0     0.297296      0.171121      0.058919     Biso  1.000000 C
   C1249      1.0     0.261819      0.229364      0.366777     Biso  1.000000 C
   C1250      1.0     0.257747      0.188548      0.375315     Biso  1.000000 C
   C1251      1.0     0.271884      0.161090      0.332347     Biso  1.000000 C
   C1252      1.0     0.302751      0.243073      0.023766     Biso  1.000000 C
   C1253      1.0     0.281304      0.241775      0.312382     Biso  1.000000 C
   C1254      1.0     0.292129      0.172043      0.283624     Biso  1.000000 C
   C1255      1.0     0.333470      0.975911      0.162640     Biso  1.000000 C
   C1256      1.0     0.348839      0.005556      0.123347     Biso  1.000000 C
   C1257      1.0     0.353780      0.044497      0.162251     Biso  1.000000 C
   C1258      1.0     0.322711      0.983495      0.244019     Biso  1.000000 C
   C1259      1.0     0.328652      0.021988      0.280957     Biso  1.000000 C
   C1260      1.0     0.332839      0.956094      0.815021     Biso  1.000000 C
   C1261      1.0     0.297530      0.214705      0.272509     Biso  1.000000 C
   C1262      1.0     0.327568      0.235689      0.995359     Biso  1.000000 C
   C1263      1.0     0.342984      0.052433      0.241486     Biso  1.000000 C
   C1264      1.0     0.218342      0.138014      0.035993     Biso  1.000000 C
   C1265      1.0     0.236409      0.153033      0.979267     Biso  1.000000 C
   C1266      1.0     0.375755      0.071024      0.936044     Biso  1.000000 C
   C1267      1.0     0.352073      0.053482      0.919269     Biso  1.000000 C
   C1268      1.0     0.367735      0.122868      0.831011     Biso  1.000000 C
   C1269      1.0     0.345589      0.102681      0.806867     Biso  1.000000 C
   C1270      1.0     0.221240      0.973694      0.721831     Biso  1.000000 C
   C1271      1.0     0.229271      0.009134      0.685340     Biso  1.000000 C
   C1272      1.0     0.337893      0.066348      0.847850     Biso  1.000000 C
   C1273      1.0     0.228939      0.961234      0.805922     Biso  1.000000 C
   C1274      1.0     0.241576      0.990781      0.853388     Biso  1.000000 C
   C1275      1.0     0.251827      0.026327      0.818543     Biso  1.000000 C
   C1276      1.0     0.194264      0.198701      0.015032     Biso  1.000000 C
   C1277      1.0     0.212399      0.213329      0.957751     Biso  1.000000 C
   C1278      1.0     0.234201      0.192020      0.944218     Biso  1.000000 C
   C1279      1.0     0.197071      0.160636      0.053913     Biso  1.000000 C
   C1280      1.0     0.243594      0.036504      0.734561     Biso  1.000000 C
   H1         1.0     0.302870      0.489836      0.826494     Biso  1.000000 H
   H2         1.0     0.253770      0.475302      0.768461     Biso  1.000000 H
   H3         1.0     0.255658      0.467099      0.878075     Biso  1.000000 H
   H4         1.0     0.263975      0.548260      0.891207     Biso  1.000000 H
   H5         1.0     0.309565      0.542231      0.854486     Biso  1.000000 H
   H6         1.0     0.290467      0.524665      0.997486     Biso  1.000000 H
   H7         1.0     0.406464      0.535324      0.179823     Biso  1.000000 H
   H8         1.0     0.337488      0.475120      0.968222     Biso  1.000000 H
   H9         1.0     0.324346      0.491958      0.114051     Biso  1.000000 H
   H10        1.0     0.372516      0.539217      0.063443     Biso  1.000000 H
   H11        1.0     0.367801      0.488365      0.068403     Biso  1.000000 H
   H12        1.0     0.351470      0.532155      0.233944     Biso  1.000000 H
   H13        1.0     0.386907      0.573613      0.182343     Biso  1.000000 H
   H14        1.0     0.225860      0.537092      0.811499     Biso  1.000000 H
   H15        1.0     0.406721      0.530302      0.325488     Biso  1.000000 H
   H16        1.0     0.340301      0.527140      0.954695     Biso  1.000000 H
   H17        1.0     0.207445      0.451110      0.788637     Biso  1.000000 H
   H18        1.0     0.110905      0.381008      0.844385     Biso  1.000000 H
   H19        1.0     0.172407      0.494878      0.832792     Biso  1.000000 H
   H20        1.0     0.958401      0.366010      0.724262     Biso  1.000000 H
   H21        1.0     0.980281      0.330883      0.767658     Biso  1.000000 H
   H22        1.0     0.404987      0.617418      0.301937     Biso  1.000000 H
   H23        1.0     0.991129      0.419316      0.735333     Biso  1.000000 H
   H24        1.0     0.028293      0.381478      0.722412     Biso  1.000000 H
   H25        1.0     0.022459      0.349799      0.811448     Biso  1.000000 H
   H26        1.0     0.021849      0.421641      0.904351     Biso  1.000000 H
   H27        1.0     0.071187      0.388813      0.817338     Biso  1.000000 H
   H28        1.0     0.057190      0.360643      0.899349     Biso  1.000000 H
   H29        1.0     0.075879      0.451376      0.909813     Biso  1.000000 H
   H30        1.0     0.098344      0.384104      0.000640     Biso  1.000000 H
   H31        1.0     0.104857      0.435557      0.993151     Biso  1.000000 H
   H32        1.0     0.140367      0.457753      0.879677     Biso  1.000000 H
   H33        1.0     0.116012      0.455406      0.813898     Biso  1.000000 H
   H34        1.0     0.168555      0.411668      0.791145     Biso  1.000000 H
   H35        1.0     0.146691      0.483286      0.689143     Biso  1.000000 H
   H36        1.0     0.173230      0.455713      0.668080     Biso  1.000000 H
   H37        1.0     0.215819      0.484550      0.712981     Biso  1.000000 H
   H38        1.0     0.429910      0.588726      0.259480     Biso  1.000000 H
   H39        1.0     0.328944      0.724554      0.790673     Biso  1.000000 H
   H40        1.0     0.452339      0.643979      0.322923     Biso  1.000000 H
   H41        1.0     0.280640      0.798868      0.992252     Biso  1.000000 H
   H42        1.0     0.275901      0.742721      0.113770     Biso  1.000000 H
   H43        1.0     0.227995      0.745565      0.088311     Biso  1.000000 H
   H44        1.0     0.227549      0.794470      0.103829     Biso  1.000000 H
   H45        1.0     0.237790      0.789886      0.243930     Biso  1.000000 H
   H46        1.0     0.192545      0.732929      0.227991     Biso  1.000000 H
   H47        1.0     0.194395      0.775910      0.168759     Biso  1.000000 H
   H48        1.0     0.250739      0.790871      0.980320     Biso  1.000000 H
   H49        1.0     0.201654      0.817844      0.310219     Biso  1.000000 H
   H50        1.0     0.173432      0.758446      0.413299     Biso  1.000000 H
   H51        1.0     0.220458      0.809314      0.441361     Biso  1.000000 H
   H52        1.0     0.173281      0.816173      0.545099     Biso  1.000000 H
   H53        1.0     0.175299      0.839901      0.448852     Biso  1.000000 H
   H54        1.0     0.212108      0.857401      0.594230     Biso  1.000000 H
   H55        1.0     0.165576      0.901285      0.547402     Biso  1.000000 H
   H56        1.0     0.985487      0.378600      0.596036     Biso  1.000000 H
   H57        1.0     0.202293      0.740437      0.390284     Biso  1.000000 H
   H58        1.0     0.419178      0.602423      0.446345     Biso  1.000000 H
   H59        1.0     0.288438      0.723004      0.973148     Biso  1.000000 H
   H60        1.0     0.282922      0.718705      0.812310     Biso  1.000000 H
   H61        1.0     0.463155      0.638423      0.428536     Biso  1.000000 H
   H62        1.0     0.413676      0.678038      0.387974     Biso  1.000000 H
   H63        1.0     0.445978      0.684785      0.548736     Biso  1.000000 H
   H64        1.0     0.417315      0.660308      0.530104     Biso  1.000000 H
   H65        1.0     0.424354      0.752940      0.515626     Biso  1.000000 H
   H66        1.0     0.417838      0.698597      0.661444     Biso  1.000000 H
   H67        1.0     0.389660      0.731292      0.650342     Biso  1.000000 H
   H68        1.0     0.263610      0.763717      0.827317     Biso  1.000000 H
   H69        1.0     0.419193      0.787951      0.661444     Biso  1.000000 H
   H70        1.0     0.421666      0.725075      0.802375     Biso  1.000000 H
   H71        1.0     0.399221      0.781210      0.888814     Biso  1.000000 H
   H72        1.0     0.379805      0.715681      0.846721     Biso  1.000000 H
   H73        1.0     0.369254      0.742108      0.756281     Biso  1.000000 H
   H74        1.0     0.350068      0.793955      0.862551     Biso  1.000000 H
   H75        1.0     0.323871      0.714866      0.898079     Biso  1.000000 H
   H76        1.0     0.309275      0.792979      0.889369     Biso  1.000000 H
   H77        1.0     0.434877      0.774217      0.810102     Biso  1.000000 H
   H78        1.0     0.945333      0.331647      0.605837     Biso  1.000000 H
   H79        1.0     0.590263      0.707725      0.758807     Biso  1.000000 H
   H80        1.0     0.986842      0.302279      0.484737     Biso  1.000000 H
   H81        1.0     0.824322      0.463475      0.976479     Biso  1.000000 H
   H82        1.0     0.807421      0.550837      0.966486     Biso  1.000000 H
   H83        1.0     0.857044      0.512721      0.967667     Biso  1.000000 H
   H84        1.0     0.857031      0.563585      0.997486     Biso  1.000000 H
   H85        1.0     0.826154      0.559722      0.843135     Biso  1.000000 H
   H86        1.0     0.882064      0.580669      0.866437     Biso  1.000000 H
   H87        1.0     0.860929      0.609549      0.908467     Biso  1.000000 H
   H88        1.0     0.811414      0.484778      0.885911     Biso  1.000000 H
   H89        1.0     0.857340      0.597663      0.720747     Biso  1.000000 H
   H90        1.0     0.873632      0.679709      0.726113     Biso  1.000000 H
   H91        1.0     0.896971      0.593214      0.717882     Biso  1.000000 H
   H92        1.0     0.923575      0.656523      0.612613     Biso  1.000000 H
   H93        1.0     0.890957      0.664407      0.596974     Biso  1.000000 H
   H94        1.0     0.912078      0.581133      0.587007     Biso  1.000000 H
   H95        1.0     0.933552      0.629763      0.480622     Biso  1.000000 H
   H96        1.0     0.906267      0.633193      0.430871     Biso  1.000000 H
   H97        1.0     0.884700      0.656393      0.821670     Biso  1.000000 H
   H98        1.0     0.905619      0.553384      0.428313     Biso  1.000000 H
   H99        1.0     0.784117      0.470738      0.045670     Biso  1.000000 H
   H100       1.0     0.786740      0.426648      0.873870     Biso  1.000000 H
   H101       1.0     0.708643      0.310697      0.392894     Biso  1.000000 H
   H102       1.0     0.191380      0.923336      0.599800     Biso  1.000000 H
   H103       1.0     0.737314      0.300715      0.347616     Biso  1.000000 H
   H104       1.0     0.706584      0.239167      0.451909     Biso  1.000000 H
   H105       1.0     0.755102      0.285013      0.508550     Biso  1.000000 H
   H106       1.0     0.744446      0.245253      0.542591     Biso  1.000000 H
   H107       1.0     0.704796      0.283000      0.591218     Biso  1.000000 H
   H108       1.0     0.798488      0.411146      0.974322     Biso  1.000000 H
   H109       1.0     0.752698      0.310994      0.669675     Biso  1.000000 H
   H110       1.0     0.712033      0.340881      0.732940     Biso  1.000000 H
   H111       1.0     0.748058      0.294065      0.831235     Biso  1.000000 H
   H112       1.0     0.719799      0.315943      0.878190     Biso  1.000000 H
   H113       1.0     0.732776      0.383049      0.833774     Biso  1.000000 H
   H114       1.0     0.776620      0.352001      0.926792     Biso  1.000000 H
   H115       1.0     0.746494      0.341994      0.972101     Biso  1.000000 H
   H116       1.0     0.741574      0.419455      0.940727     Biso  1.000000 H
   H117       1.0     0.739547      0.263317      0.693386     Biso  1.000000 H
   H118       1.0     0.938766      0.550534      0.302696     Biso  1.000000 H
   H119       1.0     0.942121      0.600619      0.316370     Biso  1.000000 H
   H120       1.0     0.899153      0.614889      0.279923     Biso  1.000000 H
   H121       1.0     0.101977      0.146547      0.008074     Biso  1.000000 H
   H122       1.0     0.074424      0.089573      0.019036     Biso  1.000000 H
   H123       1.0     0.032156      0.116667      0.013225     Biso  1.000000 H
   H124       1.0     0.041107      0.152479      0.936510     Biso  1.000000 H
   H125       1.0     0.063306      0.146123      0.119730     Biso  1.000000 H
   H126       1.0     0.014417      0.138618      0.122748     Biso  1.000000 H
   H127       1.0     0.012453      0.187960      0.073632     Biso  1.000000 H
   H128       1.0     0.092870      0.152718      0.899572     Biso  1.000000 H
   H129       1.0     0.038548      0.207873      0.210150     Biso  1.000000 H
   H130       1.0     0.993382      0.231510      0.179561     Biso  1.000000 H
   H131       1.0     0.994848      0.205023      0.351757     Biso  1.000000 H
   H132       1.0     0.953749      0.244874      0.292615     Biso  1.000000 H
   H133       1.0     0.974869      0.281538      0.320358     Biso  1.000000 H
   H134       1.0     0.980484      0.234106      0.465500     Biso  1.000000 H
   H135       1.0     0.937233      0.265482      0.520629     Biso  1.000000 H
   H136       1.0     0.933664      0.282593      0.430878     Biso  1.000000 H
   H137       1.0     0.982932      0.184248      0.211624     Biso  1.000000 H
   H138       1.0     0.108442      0.080558      0.875670     Biso  1.000000 H
   H139       1.0     0.155284      0.104944      0.916111     Biso  1.000000 H
   H140       1.0     0.138684      0.150110      0.931884     Biso  1.000000 H
   H141       1.0     0.876877      0.556368      0.337528     Biso  1.000000 H
   H142       1.0     0.890817      0.521569      0.264705     Biso  1.000000 H
   H143       1.0     0.204774      0.079563      0.193037     Biso  1.000000 H
   H144       1.0     0.204741      0.855633      0.910700     Biso  1.000000 H
   H145       1.0     0.233317      0.090534      0.235073     Biso  1.000000 H
   H146       1.0     0.223183      0.040937      0.352249     Biso  1.000000 H
   H147       1.0     0.195594      0.030021      0.312956     Biso  1.000000 H
   H148       1.0     0.218918      0.106884      0.386966     Biso  1.000000 H
   H149       1.0     0.199798      0.061939      0.494028     Biso  1.000000 H
   H150       1.0     0.172382      0.061405      0.441617     Biso  1.000000 H
   H151       1.0     0.163533      0.129951      0.483136     Biso  1.000000 H
   H152       1.0     0.178829      0.079014      0.623766     Biso  1.000000 H
   H153       1.0     0.151176      0.072792      0.567629     Biso  1.000000 H
   H154       1.0     0.160085      0.151999      0.649098     Biso  1.000000 H
   H155       1.0     0.169096      0.100016      0.759886     Biso  1.000000 H
   H156       1.0     0.140024      0.078587      0.743883     Biso  1.000000 H
   H157       1.0     0.120683      0.142696      0.778671     Biso  1.000000 H
   H158       1.0     0.964322      0.290747      0.627627     Biso  1.000000 H
   H159       1.0     0.160454      0.846803      0.653232     Biso  1.000000 H
   H160       1.0     0.621822      0.678760      0.667283     Biso  1.000000 H
   H161       1.0     0.202035      0.833491      0.716070     Biso  1.000000 H
   H162       1.0     0.660587      0.930053      0.783328     Biso  1.000000 H
   H163       1.0     0.654804      0.874773      0.677166     Biso  1.000000 H
   H164       1.0     0.589023      0.141213      0.584551     Biso  1.000000 H
   H165       1.0     0.592624      0.147266      0.748388     Biso  1.000000 H
   H166       1.0     0.600674      0.085964      0.832415     Biso  1.000000 H
   H167       1.0     0.595985      0.013958      0.610258     Biso  1.000000 H
   H168       1.0     0.593492      0.075639      0.520373     Biso  1.000000 H
   H169       1.0     0.649959      0.021081      0.593388     Biso  1.000000 H
   H170       1.0     0.552626      0.840362      0.641562     Biso  1.000000 H
   H171       1.0     0.556992      0.906519      0.875587     Biso  1.000000 H
   H172       1.0     0.553649      0.971502      0.637274     Biso  1.000000 H
   H173       1.0     0.548615      0.903795      0.562792     Biso  1.000000 H
   H174       1.0     0.448244      0.114174      0.817848     Biso  1.000000 H
   H175       1.0     0.455561      0.069499      0.694605     Biso  1.000000 H
   H176       1.0     0.482952      0.010883      0.706639     Biso  1.000000 H
   H177       1.0     0.505843      0.050298      0.962173     Biso  1.000000 H
   H178       1.0     0.559436      0.843367      0.805731     Biso  1.000000 H
   H179       1.0     0.478473      0.110869      0.946585     Biso  1.000000 H
   H180       1.0     0.646708      0.966504      0.485631     Biso  1.000000 H
   H181       1.0     0.621709      0.149686      0.888246     Biso  1.000000 H
   H182       1.0     0.809647      0.116542      0.749026     Biso  1.000000 H
   H183       1.0     0.828583      0.126576      0.880755     Biso  1.000000 H
   H184       1.0     0.638856      0.121094      0.539631     Biso  1.000000 H
   H185       1.0     0.651634      0.180243      0.608478     Biso  1.000000 H
   H186       1.0     0.699029      0.188081      0.663512     Biso  1.000000 H
   H187       1.0     0.710416      0.065174      0.581762     Biso  1.000000 H
   H188       1.0     0.669324      0.063619      0.520189     Biso  1.000000 H
   H189       1.0     0.652959      0.895244      0.514267     Biso  1.000000 H
   H190       1.0     0.834160      0.023656      0.796639     Biso  1.000000 H
   H191       1.0     0.765572      0.056323      0.921011     Biso  1.000000 H
   H192       1.0     0.764793      0.042902      0.648823     Biso  1.000000 H
   H193       1.0     0.811077      0.017370      0.648753     Biso  1.000000 H
   H194       1.0     0.632591      0.148312      0.045104     Biso  1.000000 H
   H195       1.0     0.666696      0.108595      0.104588     Biso  1.000000 H
   H196       1.0     0.694091      0.062191      0.001957     Biso  1.000000 H
   H197       1.0     0.646946      0.102008      0.796179     Biso  1.000000 H
   H198       1.0     0.810333      0.037674      0.924323     Biso  1.000000 H
   H199       1.0     0.776791      0.239076      0.760939     Biso  1.000000 H
   H200       1.0     0.427935      0.823654      0.056572     Biso  1.000000 H
   H201       1.0     0.432906      0.948608      0.990171     Biso  1.000000 H
   H202       1.0     0.567950      0.851139      0.484093     Biso  1.000000 H
   H203       1.0     0.603740      0.901200      0.504754     Biso  1.000000 H
   H204       1.0     0.526511      0.592802      0.523117     Biso  1.000000 H
   H205       1.0     0.550135      0.634324      0.623441     Biso  1.000000 H
   H206       1.0     0.567518      0.698388      0.577513     Biso  1.000000 H
   H207       1.0     0.543084      0.678053      0.317487     Biso  1.000000 H
   H208       1.0     0.520967      0.612321      0.377006     Biso  1.000000 H
   H209       1.0     0.597600      0.814460      0.243924     Biso  1.000000 H
   H210       1.0     0.627488      0.699668      0.072912     Biso  1.000000 H
   H211       1.0     0.646710      0.761318      0.302843     Biso  1.000000 H
   H212       1.0     0.594659      0.658816      0.310410     Biso  1.000000 H
   H213       1.0     0.603138      0.646074      0.161357     Biso  1.000000 H
   H214       1.0     0.578900      0.779173      0.754883     Biso  1.000000 H
   H215       1.0     0.601173      0.828854      0.671111     Biso  1.000000 H
   H216       1.0     0.637311      0.800435      0.567731     Biso  1.000000 H
   H217       1.0     0.715757      0.249717      0.258803     Biso  1.000000 H
   H218       1.0     0.642190      0.759389      0.146867     Biso  1.000000 H
   H219       1.0     0.408991      0.889243      0.038013     Biso  1.000000 H
   H220       1.0     0.634639      0.861522      0.266626     Biso  1.000000 H
   H221       1.0     0.501395      0.753185      0.062214     Biso  1.000000 H
   H222       1.0     0.500648      0.878691      0.987383     Biso  1.000000 H
   H223       1.0     0.473561      0.817143      0.051533     Biso  1.000000 H
   H224       1.0     0.407740      0.061145      0.175331     Biso  1.000000 H
   H225       1.0     0.446971      0.090261      0.136517     Biso  1.000000 H
   H226       1.0     0.484871      0.043229      0.095745     Biso  1.000000 H
   H227       1.0     0.443364      0.941497      0.190881     Biso  1.000000 H
   H228       1.0     0.403323      0.989523      0.194275     Biso  1.000000 H
   H229       1.0     0.636101      0.903747      0.392217     Biso  1.000000 H
   H230       1.0     0.610668      0.977879      0.378760     Biso  1.000000 H
   H231       1.0     0.575510      0.933027      0.160962     Biso  1.000000 H
   H232       1.0     0.529040      0.964306      0.373777     Biso  1.000000 H
   H233       1.0     0.567737      0.993553      0.452266     Biso  1.000000 H
   H234       1.0     0.523276      0.787623      0.942272     Biso  1.000000 H
   H235       1.0     0.556227      0.838782      0.961312     Biso  1.000000 H
   H236       1.0     0.561588      0.871074      0.103433     Biso  1.000000 H
   H237       1.0     0.506117      0.787957      0.211312     Biso  1.000000 H
   H238       1.0     0.614237      0.957902      0.236120     Biso  1.000000 H
   H239       1.0     0.794530      0.246226      0.901020     Biso  1.000000 H
   H240       1.0     0.821019      0.190061      0.967182     Biso  1.000000 H
   H241       1.0     0.859861      0.075876      0.505398     Biso  1.000000 H
   H242       1.0     0.896828      0.998420      0.923353     Biso  1.000000 H
   H243       1.0     0.921911      0.980787      0.658158     Biso  1.000000 H
   H244       1.0     0.900614      0.039169      0.608517     Biso  1.000000 H
   H245       1.0     0.021570      0.894068      0.668750     Biso  1.000000 H
   H246       1.0     0.997869      0.955054      0.630179     Biso  1.000000 H
   H247       1.0     0.970067      0.986245      0.739582     Biso  1.000000 H
   H248       1.0     0.994183      0.903784      0.929823     Biso  1.000000 H
   H249       1.0     0.870954      0.052627      0.868619     Biso  1.000000 H
   H250       1.0     0.022314      0.869879      0.826877     Biso  1.000000 H
   H251       1.0     0.902640      0.063904      0.229860     Biso  1.000000 H
   H252       1.0     0.920400      0.063940      0.074943     Biso  1.000000 H
   H253       1.0     0.983324      0.992191      0.164816     Biso  1.000000 H
   H254       1.0     0.964226      0.993335      0.322489     Biso  1.000000 H
   H255       1.0     0.974081      0.119102      0.616831     Biso  1.000000 H
   H256       1.0     0.008434      0.127107      0.720912     Biso  1.000000 H
   H257       1.0     0.003113      0.110896      0.864395     Biso  1.000000 H
   H258       1.0     0.924862      0.029972      0.340374     Biso  1.000000 H
   H259       1.0     0.923347      0.091389      0.833653     Biso  1.000000 H
   H260       1.0     0.873945      0.078535      0.716899     Biso  1.000000 H
   H261       1.0     0.931009      0.860597      0.623269     Biso  1.000000 H
   H262       1.0     0.163869      0.866452      0.842943     Biso  1.000000 H
   H263       1.0     0.203359      0.801745      0.893798     Biso  1.000000 H
   H264       1.0     0.180142      0.826052      0.947880     Biso  1.000000 H
   H265       1.0     0.840946      0.696092      0.620238     Biso  1.000000 H
   H266       1.0     0.862130      0.726364      0.492656     Biso  1.000000 H
   H267       1.0     0.850841      0.800141      0.454321     Biso  1.000000 H
   H268       1.0     0.804259      0.809305      0.670875     Biso  1.000000 H
   H269       1.0     0.944521      0.792114      0.603718     Biso  1.000000 H
   H270       1.0     0.813057      0.741207      0.716676     Biso  1.000000 H
   H271       1.0     0.877127      0.006796      0.488808     Biso  1.000000 H
   H272       1.0     0.855553      0.967748      0.589011     Biso  1.000000 H
   H273       1.0     0.890766      0.859754      0.491820     Biso  1.000000 H
   H274       1.0     0.913627      0.898832      0.388236     Biso  1.000000 H
   H275       1.0     0.919665      0.734339      0.665949     Biso  1.000000 H
   H276       1.0     0.884848      0.750793      0.773445     Biso  1.000000 H
   H277       1.0     0.873931      0.821422      0.814230     Biso  1.000000 H
   H278       1.0     0.908483      0.975777      0.384701     Biso  1.000000 H
   H279       1.0     0.928715      0.105577      0.674640     Biso  1.000000 H
   H280       1.0     0.854686      0.134457      0.135011     Biso  1.000000 H
   H281       1.0     0.862870      0.133987      0.970040     Biso  1.000000 H
   H282       1.0     0.839657      0.338895      0.173028     Biso  1.000000 H
   H283       1.0     0.810679      0.304008      0.092203     Biso  1.000000 H
   H284       1.0     0.833026      0.478167      0.420267     Biso  1.000000 H
   H285       1.0     0.799592      0.432142      0.409375     Biso  1.000000 H
   H286       1.0     0.806353      0.358820      0.398534     Biso  1.000000 H
   H287       1.0     0.882712      0.376563      0.475945     Biso  1.000000 H
   H288       1.0     0.875013      0.450685      0.479339     Biso  1.000000 H
   H289       1.0     0.866164      0.230862      0.294810     Biso  1.000000 H
   H290       1.0     0.905085      0.173820      0.786729     Biso  1.000000 H
   H291       1.0     0.845316      0.259320      0.718335     Biso  1.000000 H
   H292       1.0     0.892728      0.205493      0.522639     Biso  1.000000 H
   H293       1.0     0.917241      0.169787      0.639482     Biso  1.000000 H
   H294       1.0     0.848523      0.082459      0.351579     Biso  1.000000 H
   H295       1.0     0.823073      0.137608      0.304821     Biso  1.000000 H
   H296       1.0     0.813653      0.198904      0.395191     Biso  1.000000 H
   H297       1.0     0.847714      0.127902      0.611018     Biso  1.000000 H
   H298       1.0     0.869224      0.222929      0.826526     Biso  1.000000 H
   H299       1.0     0.836923      0.195717      0.191385     Biso  1.000000 H
   H300       1.0     0.811697      0.228590      0.085484     Biso  1.000000 H
   H301       1.0     0.925516      0.451055      0.233950     Biso  1.000000 H
   H302       1.0     0.905078      0.147402      0.917693     Biso  1.000000 H
   H303       1.0     0.930509      0.173963      0.170392     Biso  1.000000 H
   H304       1.0     0.892104      0.158501      0.228852     Biso  1.000000 H
   H305       1.0     0.997471      0.200165      0.649621     Biso  1.000000 H
   H306       1.0     0.020858      0.202670      0.792325     Biso  1.000000 H
   H307       1.0     0.000704      0.221373      0.920660     Biso  1.000000 H
   H308       1.0     0.932181      0.247154      0.769610     Biso  1.000000 H
   H309       1.0     0.954438      0.225355      0.643655     Biso  1.000000 H
   H310       1.0     0.836874      0.318636      0.854460     Biso  1.000000 H
   H311       1.0     0.846800      0.258613      0.942737     Biso  1.000000 H
   H312       1.0     0.889304      0.252046      0.012777     Biso  1.000000 H
   H313       1.0     0.911622      0.363751      0.896707     Biso  1.000000 H
   H314       1.0     0.869550      0.368481      0.821683     Biso  1.000000 H
   H315       1.0     0.892042      0.480705      0.133225     Biso  1.000000 H
   H316       1.0     0.867457      0.438659      0.054581     Biso  1.000000 H
   H317       1.0     0.872980      0.358290      0.054342     Biso  1.000000 H
   H318       1.0     0.929441      0.380702      0.248364     Biso  1.000000 H
   H319       1.0     0.204580      0.879040      0.761232     Biso  1.000000 H
   H320       1.0     0.722156      0.320825      0.217750     Biso  1.000000 H
   H321       1.0     0.821403      0.870015      0.668138     Biso  1.000000 H
   H322       1.0     0.674054      0.281259      0.129613     Biso  1.000000 H
   H323       1.0     0.736119      0.866634      0.819826     Biso  1.000000 H
   H324       1.0     0.723290      0.837227      0.958836     Biso  1.000000 H
   H325       1.0     0.683548      0.879746      0.994185     Biso  1.000000 H
   H326       1.0     0.692323      0.902568      0.899515     Biso  1.000000 H
   H327       1.0     0.729530      0.893267      0.048917     Biso  1.000000 H
   H328       1.0     0.702378      0.969813      0.994257     Biso  1.000000 H
   H329       1.0     0.727174      0.962972      0.069607     Biso  1.000000 H
   H330       1.0     0.707162      0.847767      0.770663     Biso  1.000000 H
   H331       1.0     0.699668      0.913957      0.155296     Biso  1.000000 H
   H332       1.0     0.682645      0.003691      0.159169     Biso  1.000000 H
   H333       1.0     0.729494      0.965925      0.224635     Biso  1.000000 H
   H334       1.0     0.700037      0.974404      0.349869     Biso  1.000000 H
   H335       1.0     0.701298      0.023962      0.349007     Biso  1.000000 H
   H336       1.0     0.750725      0.975504      0.350341     Biso  1.000000 H
   H337       1.0     0.736547      0.047547      0.456675     Biso  1.000000 H
   H338       1.0     0.751699      0.052014      0.353805     Biso  1.000000 H
   H339       1.0     0.681064      0.965346      0.237013     Biso  1.000000 H
   H340       1.0     0.772615      0.009267      0.509552     Biso  1.000000 H
   H341       1.0     0.718956      0.777777      0.819430     Biso  1.000000 H
   H342       1.0     0.747109      0.826535      0.694681     Biso  1.000000 H
   H343       1.0     0.561319      0.785252      0.285762     Biso  1.000000 H
   H344       1.0     0.534665      0.753440      0.413159     Biso  1.000000 H
   H345       1.0     0.552779      0.783063      0.474139     Biso  1.000000 H
   H346       1.0     0.572629      0.724057      0.343194     Biso  1.000000 H
   H347       1.0     0.593517      0.735022      0.513074     Biso  1.000000 H
   H348       1.0     0.601723      0.771646      0.439938     Biso  1.000000 H
   H349       1.0     0.613666      0.686637      0.445324     Biso  1.000000 H
   H350       1.0     0.755074      0.773963      0.709574     Biso  1.000000 H
   H351       1.0     0.647100      0.762649      0.450441     Biso  1.000000 H
   H352       1.0     0.644532      0.685252      0.554121     Biso  1.000000 H
   H353       1.0     0.678563      0.754295      0.538488     Biso  1.000000 H
   H354       1.0     0.689400      0.703734      0.523379     Biso  1.000000 H
   H355       1.0     0.674169      0.746138      0.688760     Biso  1.000000 H
   H356       1.0     0.723125      0.718762      0.609359     Biso  1.000000 H
   H357       1.0     0.718738      0.727877      0.725538     Biso  1.000000 H
   H358       1.0     0.700573      0.798467      0.682775     Biso  1.000000 H
   H359       1.0     0.657841      0.715187      0.431305     Biso  1.000000 H
   H360       1.0     0.531574      0.849553      0.384771     Biso  1.000000 H
   H361       1.0     0.801318      0.062533      0.536657     Biso  1.000000 H
   H362       1.0     0.967501      0.730218      0.533716     Biso  1.000000 H
   H363       1.0     0.078540      0.644912      0.335136     Biso  1.000000 H
   H364       1.0     0.080961      0.617515      0.249953     Biso  1.000000 H
   H365       1.0     0.034627      0.632368      0.353403     Biso  1.000000 H
   H366       1.0     0.032171      0.563361      0.380681     Biso  1.000000 H
   H367       1.0     0.055045      0.594069      0.440519     Biso  1.000000 H
   H368       1.0     0.074937      0.550416      0.294535     Biso  1.000000 H
   H369       1.0     0.090760      0.545737      0.476768     Biso  1.000000 H
   H370       1.0     0.049338      0.663452      0.169033     Biso  1.000000 H
   H371       1.0     0.098957      0.584984      0.416221     Biso  1.000000 H
   H372       1.0     0.115454      0.480860      0.464402     Biso  1.000000 H
   H373       1.0     0.141262      0.518039      0.477432     Biso  1.000000 H
   H374       1.0     0.163224      0.497195      0.356217     Biso  1.000000 H
   H375       1.0     0.150443      0.427151      0.477438     Biso  1.000000 H
   H376       1.0     0.165263      0.470404      0.511536     Biso  1.000000 H
   H377       1.0     0.186671      0.416362      0.372629     Biso  1.000000 H
   H378       1.0     0.183298      0.381996      0.520705     Biso  1.000000 H
   H379       1.0     0.110359      0.508205      0.321596     Biso  1.000000 H
   H380       1.0     0.771374      0.082805      0.530927     Biso  1.000000 H
   H381       1.0     0.101410      0.687396      0.228597     Biso  1.000000 H
   H382       1.0     0.105277      0.636201      0.129492     Biso  1.000000 H
   H383       1.0     0.060732      0.983019      0.623958     Biso  1.000000 H
   H384       1.0     0.985163      0.736556      0.451928     Biso  1.000000 H
   H385       1.0     0.994332      0.661697      0.454997     Biso  1.000000 H
   H386       1.0     0.976717      0.655577      0.548729     Biso  1.000000 H
   H387       1.0     0.027195      0.701481      0.532318     Biso  1.000000 H
   H388       1.0     0.023914      0.629815      0.559462     Biso  1.000000 H
   H389       1.0     0.007275      0.638533      0.650604     Biso  1.000000 H
   H390       1.0     0.083294      0.719951      0.161957     Biso  1.000000 H
   H391       1.0     0.045620      0.692836      0.681722     Biso  1.000000 H
   H392       1.0     0.028953      0.628787      0.761704     Biso  1.000000 H
   H393       1.0     0.079207      0.664432      0.792919     Biso  1.000000 H
   H394       1.0     0.080202      0.596180      0.842037     Biso  1.000000 H
   H395       1.0     0.054216      0.604958      0.916104     Biso  1.000000 H
   H396       1.0     0.103517      0.650989      0.917802     Biso  1.000000 H
   H397       1.0     0.064058      0.639685      0.047420     Biso  1.000000 H
   H398       1.0     0.075683      0.686231      0.006172     Biso  1.000000 H
   H399       1.0     0.055485      0.603985      0.717563     Biso  1.000000 H
   H400       1.0     0.518205      0.805869      0.335155     Biso  1.000000 H
   H401       1.0     0.552272      0.866771      0.251363     Biso  1.000000 H
   H402       1.0     0.511998      0.900560      0.317046     Biso  1.000000 H
   H403       1.0     0.970467      0.126707      0.071724     Biso  1.000000 H
   H404       1.0     0.942038      0.168847      0.928853     Biso  1.000000 H
   H405       1.0     0.976651      0.213001      0.030192     Biso  1.000000 H
   H406       1.0     0.948054      0.221213      0.065422     Biso  1.000000 H
   H407       1.0     0.929546      0.234816      0.928847     Biso  1.000000 H
   H408       1.0     0.955509      0.302877      0.906342     Biso  1.000000 H
   H409       1.0     0.968615      0.292858      0.996035     Biso  1.000000 H
   H410       1.0     0.986326      0.143506      0.983721     Biso  1.000000 H
   H411       1.0     0.932604      0.341694      0.002184     Biso  1.000000 H
   H412       1.0     0.928255      0.264236      0.124490     Biso  1.000000 H
   H413       1.0     0.889313      0.305694      0.128835     Biso  1.000000 H
   H414       1.0     0.919175      0.316556      0.282067     Biso  1.000000 H
   H415       1.0     0.905302      0.270346      0.255154     Biso  1.000000 H
   H416       1.0     0.874116      0.347252      0.285315     Biso  1.000000 H
   H417       1.0     0.891162      0.325495      0.418225     Biso  1.000000 H
   H418       1.0     0.883869      0.277423      0.406523     Biso  1.000000 H
   H419       1.0     0.945318      0.306937      0.139376     Biso  1.000000 H
   H420       1.0     0.835455      0.302307      0.411455     Biso  1.000000 H
   H421       1.0     0.941167      0.089518      0.969338     Biso  1.000000 H
   H422       1.0     0.988089      0.043096      0.928572     Biso  1.000000 H
   H423       1.0     0.669405      0.582577      0.819686     Biso  1.000000 H
   H424       1.0     0.834435      0.860818      0.481617     Biso  1.000000 H
   H425       1.0     0.823742      0.911113      0.596680     Biso  1.000000 H
   H426       1.0     0.867268      0.850936      0.622209     Biso  1.000000 H
   H427       1.0     0.852544      0.880353      0.749970     Biso  1.000000 H
   H428       1.0     0.860579      0.927869      0.717524     Biso  1.000000 H
   H429       1.0     0.906463      0.904872      0.678998     Biso  1.000000 H
   H430       1.0     0.991421      0.059895      0.040643     Biso  1.000000 H
   H431       1.0     0.914941      0.884986      0.851717     Biso  1.000000 H
   H432       1.0     0.935542      0.938407      0.763976     Biso  1.000000 H
   H433       1.0     0.939221      0.916419      0.926173     Biso  1.000000 H
   H434       1.0     0.923605      0.960998      0.941321     Biso  1.000000 H
   H435       1.0     0.959059      0.000727      0.865346     Biso  1.000000 H
   H436       1.0     0.990449      0.980841      0.003118     Biso  1.000000 H
   H437       1.0     0.965822      0.954427      0.030517     Biso  1.000000 H
   H438       1.0     0.943639      0.020854      0.983548     Biso  1.000000 H
   H439       1.0     0.888166      0.913654      0.867094     Biso  1.000000 H
   H440       1.0     0.843005      0.317359      0.582790     Biso  1.000000 H
   H441       1.0     0.873368      0.311501      0.550816     Biso  1.000000 H
   H442       1.0     0.860110      0.243925      0.483570     Biso  1.000000 H
   H443       1.0     0.580943      0.021676      0.882516     Biso  1.000000 H
   H444       1.0     0.587800      0.970471      0.885375     Biso  1.000000 H
   H445       1.0     0.552555      0.008391      0.760166     Biso  1.000000 H
   H446       1.0     0.538616      0.019504      0.906176     Biso  1.000000 H
   H447       1.0     0.541712      0.965798      0.925886     Biso  1.000000 H
   H448       1.0     0.514713      0.975805      0.772647     Biso  1.000000 H
   H449       1.0     0.506443      0.921041      0.867464     Biso  1.000000 H
   H450       1.0     0.606095      0.984016      0.729354     Biso  1.000000 H
   H451       1.0     0.480846      0.946994      0.830048     Biso  1.000000 H
   H452       1.0     0.512546      0.990029      0.036856     Biso  1.000000 H
   H453       1.0     0.514792      0.937015      0.032567     Biso  1.000000 H
   H454       1.0     0.479314      0.933412      0.135707     Biso  1.000000 H
   H455       1.0     0.500660      0.969982      0.265344     Biso  1.000000 H
   H456       1.0     0.518917      0.992516      0.187741     Biso  1.000000 H
   H457       1.0     0.534067      0.925480      0.145769     Biso  1.000000 H
   H458       1.0     0.498717      0.885762      0.216404     Biso  1.000000 H
   H459       1.0     0.469519      0.979374      0.962358     Biso  1.000000 H
   H460       1.0     0.633248      0.982300      0.857345     Biso  1.000000 H
   H461       1.0     0.632806      0.035455      0.866705     Biso  1.000000 H
   H462       1.0     0.651887      0.041064      0.727299     Biso  1.000000 H
   H463       1.0     0.813116      0.253292      0.492968     Biso  1.000000 H
   H464       1.0     0.817340      0.264305      0.608408     Biso  1.000000 H
   H465       1.0     0.824544      0.194980      0.638940     Biso  1.000000 H
   H466       1.0     0.779800      0.183969      0.520527     Biso  1.000000 H
   H467       1.0     0.777839      0.223290      0.594428     Biso  1.000000 H
   H468       1.0     0.784632      0.136368      0.635909     Biso  1.000000 H
   H469       1.0     0.744271      0.177195      0.587454     Biso  1.000000 H
   H470       1.0     0.738908      0.194158      0.687178     Biso  1.000000 H
   H471       1.0     0.746383      0.104046      0.638429     Biso  1.000000 H
   H472       1.0     0.716416      0.128875      0.794756     Biso  1.000000 H
   H473       1.0     0.750031      0.129985      0.797187     Biso  1.000000 H
   H474       1.0     0.726901      0.054194      0.727536     Biso  1.000000 H
   H475       1.0     0.720926      0.083432      0.904000     Biso  1.000000 H
   H476       1.0     0.721014      0.032070      0.880762     Biso  1.000000 H
   H477       1.0     0.688089      0.078177      0.763363     Biso  1.000000 H
   H478       1.0     0.681705      0.997258      0.862136     Biso  1.000000 H
   H479       1.0     0.694187      0.004218      0.760077     Biso  1.000000 H
   H480       1.0     0.205449      0.413020      0.554759     Biso  1.000000 H
   H481       1.0     0.230933      0.378000      0.423534     Biso  1.000000 H
   H482       1.0     0.232294      0.314090      0.505838     Biso  1.000000 H
   H483       1.0     0.210379      0.334498      0.581603     Biso  1.000000 H
   H484       1.0     0.353891      0.998627      0.729890     Biso  1.000000 H
   H485       1.0     0.292687      0.002317      0.737821     Biso  1.000000 H
   H486       1.0     0.313170      0.036161      0.686788     Biso  1.000000 H
   H487       1.0     0.309471      0.023795      0.883256     Biso  1.000000 H
   H488       1.0     0.286139      0.084763      0.760211     Biso  1.000000 H
   H489       1.0     0.295269      0.102606      0.861147     Biso  1.000000 H
   H490       1.0     0.269387      0.042232      0.925433     Biso  1.000000 H
   H491       1.0     0.312503      0.947158      0.650042     Biso  1.000000 H
   H492       1.0     0.232750      0.076340      0.929765     Biso  1.000000 H
   H493       1.0     0.271409      0.142751      0.916940     Biso  1.000000 H
   H494       1.0     0.289836      0.090422      0.007062     Biso  1.000000 H
   H495       1.0     0.262383      0.083960      0.072652     Biso  1.000000 H
   H496       1.0     0.263774      0.149340      0.126366     Biso  1.000000 H
   H497       1.0     0.309829      0.092438      0.141143     Biso  1.000000 H
   H498       1.0     0.282350      0.089688      0.206348     Biso  1.000000 H
   H499       1.0     0.322415      0.153974      0.213909     Biso  1.000000 H
   H500       1.0     0.240588      0.107327      0.839785     Biso  1.000000 H
   H501       1.0     0.310547      0.091277      0.344968     Biso  1.000000 H
   H502       1.0     0.342734      0.935177      0.645474     Biso  1.000000 H
   H503       1.0     0.336248      0.975732      0.428230     Biso  1.000000 H
   H504       1.0     0.547789      0.090434      0.351381     Biso  1.000000 H
   H505       1.0     0.869859      0.554042      0.224698     Biso  1.000000 H
   H506       1.0     0.546189      0.040973      0.314066     Biso  1.000000 H
   H507       1.0     0.503871      0.057142      0.256098     Biso  1.000000 H
   H508       1.0     0.506043      0.104070      0.310659     Biso  1.000000 H
   H509       1.0     0.508713      0.026154      0.406006     Biso  1.000000 H
   H510       1.0     0.469236      0.034433      0.324843     Biso  1.000000 H
   H511       1.0     0.349231      0.008336      0.578763     Biso  1.000000 H
   H512       1.0     0.462865      0.080030      0.376948     Biso  1.000000 H
   H513       1.0     0.428607      0.015271      0.353001     Biso  1.000000 H
   H514       1.0     0.419617      0.057612      0.416119     Biso  1.000000 H
   H515       1.0     0.420181      0.966125      0.470419     Biso  1.000000 H
   H516       1.0     0.385062      0.992300      0.370855     Biso  1.000000 H
   H517       1.0     0.373249      0.017636      0.464504     Biso  1.000000 H
   H518       1.0     0.377283      0.945524      0.547134     Biso  1.000000 H
   H519       1.0     0.331294      0.933106      0.484163     Biso  1.000000 H
   H520       1.0     0.457056      0.037134      0.510082     Biso  1.000000 H
   H521       1.0     0.328360      0.139215      0.359854     Biso  1.000000 H
   H522       1.0     0.353501      0.113107      0.240701     Biso  1.000000 H
   H523       1.0     0.381331      0.069250      0.338996     Biso  1.000000 H
   H524       1.0     0.554997      0.339886      0.687695     Biso  1.000000 H
   H525       1.0     0.548637      0.347037      0.843588     Biso  1.000000 H
   H526       1.0     0.533280      0.423349      0.851710     Biso  1.000000 H
   H527       1.0     0.526368      0.417608      0.743538     Biso  1.000000 H
   H528       1.0     0.571065      0.399511      0.708413     Biso  1.000000 H
   H529       1.0     0.583669      0.378706      0.855111     Biso  1.000000 H
   H530       1.0     0.576916      0.429956      0.890594     Biso  1.000000 H
   H531       1.0     0.523417      0.352604      0.671079     Biso  1.000000 H
   H532       1.0     0.620327      0.442519      0.806005     Biso  1.000000 H
   H533       1.0     0.628002      0.422909      0.950764     Biso  1.000000 H
   H534       1.0     0.661354      0.359836      0.857370     Biso  1.000000 H
   H535       1.0     0.661811      0.398868      0.026949     Biso  1.000000 H
   H536       1.0     0.690188      0.392322      0.973741     Biso  1.000000 H
   H537       1.0     0.683255      0.319585      0.951415     Biso  1.000000 H
   H538       1.0     0.681115      0.360979      0.118192     Biso  1.000000 H
   H539       1.0     0.707185      0.353720      0.066726     Biso  1.000000 H
   H540       1.0     0.623229      0.372108      0.937046     Biso  1.000000 H
   H541       1.0     0.512746      0.289119      0.743105     Biso  1.000000 H
   H542       1.0     0.522258      0.242130      0.626312     Biso  1.000000 H
   H543       1.0     0.548682      0.269709      0.599654     Biso  1.000000 H
   H544       1.0     0.358310      0.083196      0.413956     Biso  1.000000 H
   H545       1.0     0.366452      0.158543      0.349084     Biso  1.000000 H
   H546       1.0     0.393249      0.124796      0.236662     Biso  1.000000 H
   H547       1.0     0.418879      0.131819      0.307067     Biso  1.000000 H
   H548       1.0     0.383700      0.194392      0.236299     Biso  1.000000 H
   H549       1.0     0.428359      0.206691      0.351617     Biso  1.000000 H
   H550       1.0     0.399453      0.219578      0.375985     Biso  1.000000 H
   H551       1.0     0.427833      0.257752      0.220309     Biso  1.000000 H
   H552       1.0     0.413849      0.304547      0.383808     Biso  1.000000 H
   H553       1.0     0.429446      0.317514      0.283146     Biso  1.000000 H
   H554       1.0     0.460242      0.313399      0.389008     Biso  1.000000 H
   H555       1.0     0.455541      0.227274      0.437533     Biso  1.000000 H
   H556       1.0     0.431528      0.262783      0.481279     Biso  1.000000 H
   H557       1.0     0.463788      0.304287      0.537920     Biso  1.000000 H
   H558       1.0     0.498572      0.278145      0.442050     Biso  1.000000 H
   H559       1.0     0.503041      0.237169      0.517438     Biso  1.000000 H
   H560       1.0     0.501342      0.318523      0.584538     Biso  1.000000 H
   H561       1.0     0.090846      0.003670      0.605722     Biso  1.000000 H
   H562       1.0     0.691187      0.330523      0.242488     Biso  1.000000 H
   H563       1.0     0.064942      0.015144      0.535585     Biso  1.000000 H
   H564       1.0     0.049539      0.956965      0.432862     Biso  1.000000 H
   H565       1.0     0.394757      0.538220      0.895629     Biso  1.000000 H
   H566       1.0     0.420303      0.598033      0.855647     Biso  1.000000 H
   H567       1.0     0.446447      0.536079      0.966927     Biso  1.000000 H
   H568       1.0     0.424503      0.572743      0.996629     Biso  1.000000 H
   H569       1.0     0.476412      0.589030      0.928419     Biso  1.000000 H
   H570       1.0     0.460376      0.589545      0.116112     Biso  1.000000 H
   H571       1.0     0.486435      0.617349      0.071836     Biso  1.000000 H
   H572       1.0     0.418877      0.506010      0.859278     Biso  1.000000 H
   H573       1.0     0.505778      0.560571      0.009663     Biso  1.000000 H
   H574       1.0     0.520839      0.597654      0.142483     Biso  1.000000 H
   H575       1.0     0.528552      0.508809      0.149062     Biso  1.000000 H
   H576       1.0     0.534584      0.537025      0.290152     Biso  1.000000 H
   H577       1.0     0.554011      0.571339      0.252588     Biso  1.000000 H
   H578       1.0     0.588634      0.530408      0.218586     Biso  1.000000 H
   H579       1.0     0.573658      0.489014      0.373662     Biso  1.000000 H
   H580       1.0     0.576780      0.540369      0.380285     Biso  1.000000 H
   H581       1.0     0.501278      0.560019      0.200216     Biso  1.000000 H
   H582       1.0     0.612571      0.508551      0.429142     Biso  1.000000 H
   H583       1.0     0.412575      0.539763      0.712541     Biso  1.000000 H
   H584       1.0     0.364502      0.500643      0.770108     Biso  1.000000 H
   H585       1.0     0.252100      0.390366      0.572746     Biso  1.000000 H
   H586       1.0     0.271368      0.333170      0.469545     Biso  1.000000 H
   H587       1.0     0.275664      0.301994      0.553457     Biso  1.000000 H
   H588       1.0     0.300613      0.356410      0.617915     Biso  1.000000 H
   H589       1.0     0.335941      0.348404      0.481866     Biso  1.000000 H
   H590       1.0     0.314994      0.311928      0.457307     Biso  1.000000 H
   H591       1.0     0.333474      0.317556      0.637434     Biso  1.000000 H
   H592       1.0     0.373243      0.509085      0.673006     Biso  1.000000 H
   H593       1.0     0.369354      0.299732      0.494959     Biso  1.000000 H
   H594       1.0     0.401582      0.313093      0.586726     Biso  1.000000 H
   H595       1.0     0.360511      0.373982      0.632336     Biso  1.000000 H
   H596       1.0     0.375749      0.371277      0.536115     Biso  1.000000 H
   H597       1.0     0.405240      0.382093      0.698842     Biso  1.000000 H
   H598       1.0     0.364882      0.432667      0.651561     Biso  1.000000 H
   H599       1.0     0.389417      0.457547      0.599462     Biso  1.000000 H
   H600       1.0     0.415106      0.466299      0.720568     Biso  1.000000 H
   H601       1.0     0.367500      0.262883      0.576524     Biso  1.000000 H
   H602       1.0     0.610996      0.573834      0.347278     Biso  1.000000 H
   H603       1.0     0.634257      0.553769      0.282635     Biso  1.000000 H
   H604       1.0     0.657393      0.535290      0.411200     Biso  1.000000 H
   H605       1.0     0.922455      0.922363      0.239074     Biso  1.000000 H
   H606       1.0     0.928338      0.916070      0.132421     Biso  1.000000 H
   H607       1.0     0.937250      0.834419      0.181744     Biso  1.000000 H
   H608       1.0     0.979574      0.898116      0.179912     Biso  1.000000 H
   H609       1.0     0.962204      0.891642      0.091323     Biso  1.000000 H
   H610       1.0     0.988282      0.819199      0.177137     Biso  1.000000 H
   H611       1.0     0.004285      0.861804      0.022591     Biso  1.000000 H
   H612       1.0     0.900864      0.864530      0.115384     Biso  1.000000 H
   H613       1.0     0.020019      0.821261      0.076297     Biso  1.000000 H
   H614       1.0     0.041380      0.835980      0.223952     Biso  1.000000 H
   H615       1.0     0.014590      0.867920      0.247682     Biso  1.000000 H
   H616       1.0     0.069702      0.891657      0.253035     Biso  1.000000 H
   H617       1.0     0.047866      0.848364      0.367703     Biso  1.000000 H
   H618       1.0     0.028992      0.888649      0.396550     Biso  1.000000 H
   H619       1.0     0.082985      0.906876      0.389416     Biso  1.000000 H
   H620       1.0     0.047126      0.926802      0.522664     Biso  1.000000 H
   H621       1.0     0.019774      0.908344      0.115825     Biso  1.000000 H
   H622       1.0     0.874182      0.888998      0.277371     Biso  1.000000 H
   H623       1.0     0.893325      0.845102      0.285838     Biso  1.000000 H
   H624       1.0     0.846684      0.860830      0.181137     Biso  1.000000 H
   H625       1.0     0.668263      0.618434      0.441208     Biso  1.000000 H
   H626       1.0     0.650799      0.623993      0.353525     Biso  1.000000 H
   H627       1.0     0.694119      0.563876      0.371531     Biso  1.000000 H
   H628       1.0     0.705029      0.634666      0.428740     Biso  1.000000 H
   H629       1.0     0.702336      0.651299      0.320109     Biso  1.000000 H
   H630       1.0     0.739272      0.609837      0.280740     Biso  1.000000 H
   H631       1.0     0.765351      0.634311      0.418136     Biso  1.000000 H
   H632       1.0     0.743108      0.665690      0.438758     Biso  1.000000 H
   H633       1.0     0.771967      0.661157      0.275935     Biso  1.000000 H
   H634       1.0     0.788559      0.694985      0.411825     Biso  1.000000 H
   H635       1.0     0.768841      0.731328      0.395637     Biso  1.000000 H
   H636       1.0     0.784875      0.741729      0.246750     Biso  1.000000 H
   H637       1.0     0.830047      0.754580      0.358495     Biso  1.000000 H
   H638       1.0     0.803051      0.780919      0.382104     Biso  1.000000 H
   H639       1.0     0.827250      0.781586      0.203336     Biso  1.000000 H
   H640       1.0     0.862258      0.795050      0.306429     Biso  1.000000 H
   H641       1.0     0.846478      0.835929      0.346200     Biso  1.000000 H
   H642       1.0     0.089499      0.933042      0.557567     Biso  1.000000 H
   H643       1.0     0.664429      0.646956      0.908869     Biso  1.000000 H
   H644       1.0     0.097044      0.782199      0.809234     Biso  1.000000 H
   H645       1.0     0.684098      0.639151      0.593165     Biso  1.000000 H
   H646       1.0     0.928858      0.686125      0.790315     Biso  1.000000 H
   H647       1.0     0.969594      0.676085      0.875319     Biso  1.000000 H
   H648       1.0     0.810272      0.551025      0.474248     Biso  1.000000 H
   H649       1.0     0.823082      0.621300      0.428651     Biso  1.000000 H
   H650       1.0     0.862755      0.651538      0.476915     Biso  1.000000 H
   H651       1.0     0.881331      0.532498      0.599220     Biso  1.000000 H
   H652       1.0     0.837433      0.510601      0.555212     Biso  1.000000 H
   H653       1.0     0.932141      0.558166      0.734344     Biso  1.000000 H
   H654       1.0     0.997937      0.491525      0.587001     Biso  1.000000 H
   H655       1.0     0.973900      0.590394      0.424229     Biso  1.000000 H
   H656       1.0     0.920238      0.507511      0.529983     Biso  1.000000 H
   H657       1.0     0.952980      0.467078      0.598518     Biso  1.000000 H
   H658       1.0     0.936315      0.580014      0.933817     Biso  1.000000 H
   H659       1.0     0.915316      0.641450      0.989597     Biso  1.000000 H
   H660       1.0     0.902960      0.645443      0.151429     Biso  1.000000 H
   H661       1.0     0.930081      0.522976      0.178413     Biso  1.000000 H
   H662       1.0     0.006921      0.553381      0.509201     Biso  1.000000 H
   H663       1.0     0.944706      0.523431      0.023193     Biso  1.000000 H
   H664       1.0     0.972033      0.552056      0.803523     Biso  1.000000 H
   H665       1.0     0.791263      0.700935      0.872977     Biso  1.000000 H
   H666       1.0     0.770281      0.486743      0.805974     Biso  1.000000 H
   H667       1.0     0.745906      0.544105      0.747533     Biso  1.000000 H
   H668       1.0     0.814797      0.539323      0.337624     Biso  1.000000 H
   H669       1.0     0.835225      0.481797      0.267832     Biso  1.000000 H
   H670       1.0     0.839862      0.473961      0.118281     Biso  1.000000 H
   H671       1.0     0.799254      0.586446      0.084738     Biso  1.000000 H
   H672       1.0     0.795591      0.592080      0.241792     Biso  1.000000 H
   H673       1.0     0.989648      0.610407      0.878203     Biso  1.000000 H
   H674       1.0     0.878761      0.422569      0.683566     Biso  1.000000 H
   H675       1.0     0.890371      0.518249      0.873379     Biso  1.000000 H
   H676       1.0     0.821100      0.509509      0.739710     Biso  1.000000 H
   H677       1.0     0.838735      0.452589      0.644899     Biso  1.000000 H
   H678       1.0     0.762195      0.676185      0.757972     Biso  1.000000 H
   H679       1.0     0.776674      0.628559      0.655676     Biso  1.000000 H
   H680       1.0     0.821009      0.601256      0.666045     Biso  1.000000 H
   H681       1.0     0.832012      0.679123      0.885936     Biso  1.000000 H
   H682       1.0     0.907198      0.455212      0.804059     Biso  1.000000 H
   H683       1.0     0.756282      0.530897      0.064996     Biso  1.000000 H
   H684       1.0     0.254128      0.936166      0.046707     Biso  1.000000 H
   H685       1.0     0.197224      0.020642      0.102144     Biso  1.000000 H
   H686       1.0     0.188831      0.159174      0.804927     Biso  1.000000 H
   H687       1.0     0.209549      0.223378      0.758948     Biso  1.000000 H
   H688       1.0     0.145807      0.990072      0.175414     Biso  1.000000 H
   H689       1.0     0.115503      0.968870      0.056053     Biso  1.000000 H
   H690       1.0     0.106799      0.017309      0.931839     Biso  1.000000 H
   H691       1.0     0.140062      0.111199      0.078413     Biso  1.000000 H
   H692       1.0     0.156591      0.062709      0.185253     Biso  1.000000 H
   H693       1.0     0.115588      0.216052      0.802266     Biso  1.000000 H
   H694       1.0     0.031103      0.017197      0.712528     Biso  1.000000 H
   H695       1.0     0.051816      0.029999      0.973454     Biso  1.000000 H
   H696       1.0     0.065117      0.129457      0.798712     Biso  1.000000 H
   H697       1.0     0.042848      0.086349      0.680535     Biso  1.000000 H
   H698       1.0     0.095209      0.310882      0.068479     Biso  1.000000 H
   H699       1.0     0.115379      0.255126      0.145769     Biso  1.000000 H
   H700       1.0     0.096447      0.186683      0.138955     Biso  1.000000 H
   H701       1.0     0.038505      0.224845      0.967309     Biso  1.000000 H
   H702       1.0     0.031730      0.986682      0.853369     Biso  1.000000 H
   H703       1.0     0.213616      0.957911      0.028360     Biso  1.000000 H
   H704       1.0     0.133218      0.277411      0.751144     Biso  1.000000 H
   H705       1.0     0.066859      0.090965      0.562933     Biso  1.000000 H
   H706       1.0     0.265396      0.033007      0.233867     Biso  1.000000 H
   H707       1.0     0.283740      0.972399      0.142228     Biso  1.000000 H
   H708       1.0     0.138251      0.193828      0.198276     Biso  1.000000 H
   H709       1.0     0.185746      0.210490      0.221527     Biso  1.000000 H
   H710       1.0     0.211878      0.167025      0.285991     Biso  1.000000 H
   H711       1.0     0.148862      0.085015      0.337369     Biso  1.000000 H
   H712       1.0     0.119799      0.135403      0.274863     Biso  1.000000 H
   H713       1.0     0.180413      0.282111      0.730273     Biso  1.000000 H
   H714       1.0     0.250807      0.217634      0.611841     Biso  1.000000 H
   H715       1.0     0.182978      0.193721      0.481975     Biso  1.000000 H
   H716       1.0     0.222570      0.096938      0.596993     Biso  1.000000 H
   H717       1.0     0.255354      0.142627      0.640350     Biso  1.000000 H
   H718       1.0     0.054137      0.162306      0.535241     Biso  1.000000 H
   H719       1.0     0.086791      0.216000      0.551211     Biso  1.000000 H
   H720       1.0     0.132719      0.196160      0.605696     Biso  1.000000 H
   H721       1.0     0.108401      0.073192      0.608663     Biso  1.000000 H
   H722       1.0     0.211664      0.244355      0.537276     Biso  1.000000 H
   H723       1.0     0.733946      0.587710      0.001670     Biso  1.000000 H
   H724       1.0     0.727289      0.595779      0.846759     Biso  1.000000 H
   H725       1.0     0.779689      0.373230      0.248007     Biso  1.000000 H
   H726       1.0     0.487309      0.375768      0.738262     Biso  1.000000 H
   H727       1.0     0.524819      0.330647      0.955984     Biso  1.000000 H
   H728       1.0     0.482383      0.318642      0.033716     Biso  1.000000 H
   H729       1.0     0.555873      0.565022      0.620493     Biso  1.000000 H
   H730       1.0     0.537764      0.552077      0.767613     Biso  1.000000 H
   H731       1.0     0.546131      0.487025      0.835995     Biso  1.000000 H
   H732       1.0     0.583206      0.445615      0.610335     Biso  1.000000 H
   H733       1.0     0.445295      0.354796      0.793257     Biso  1.000000 H
   H734       1.0     0.577781      0.511065      0.549099     Biso  1.000000 H
   H735       1.0     0.604738      0.290644      0.665700     Biso  1.000000 H
   H736       1.0     0.610566      0.328946      0.805457     Biso  1.000000 H
   H737       1.0     0.625907      0.436333      0.661049     Biso  1.000000 H
   H738       1.0     0.624688      0.394978      0.524502     Biso  1.000000 H
   H739       1.0     0.710882      0.504591      0.717142     Biso  1.000000 H
   H740       1.0     0.706184      0.433883      0.656538     Biso  1.000000 H
   H741       1.0     0.684448      0.382858      0.742607     Biso  1.000000 H
   H742       1.0     0.617968      0.322129      0.526537     Biso  1.000000 H
   H743       1.0     0.660626      0.471690      0.926849     Biso  1.000000 H
   H744       1.0     0.443104      0.323824      0.952436     Biso  1.000000 H
   H745       1.0     0.516064      0.215233      0.772628     Biso  1.000000 H
   H746       1.0     0.463606      0.203073      0.317142     Biso  1.000000 H
   H747       1.0     0.485852      0.325267      0.279400     Biso  1.000000 H
   H748       1.0     0.521802      0.301891      0.181310     Biso  1.000000 H
   H749       1.0     0.458073      0.195559      0.818958     Biso  1.000000 H
   H750       1.0     0.458961      0.268854      0.814332     Biso  1.000000 H
   H751       1.0     0.463649      0.306315      0.680765     Biso  1.000000 H
   H752       1.0     0.472087      0.192772      0.556176     Biso  1.000000 H
   H753       1.0     0.536647      0.173669      0.875408     Biso  1.000000 H
   H754       1.0     0.468903      0.156230      0.692550     Biso  1.000000 H
   H755       1.0     0.550646      0.415176      0.424401     Biso  1.000000 H
   H756       1.0     0.519727      0.378452      0.530008     Biso  1.000000 H
   H757       1.0     0.550254      0.264178      0.447442     Biso  1.000000 H
   H758       1.0     0.579640      0.295044      0.354048     Biso  1.000000 H
   H759       1.0     0.579060      0.198221      0.937709     Biso  1.000000 H
   H760       1.0     0.600568      0.258104      0.880608     Biso  1.000000 H
   H761       1.0     0.575484      0.302207      0.797998     Biso  1.000000 H
   H762       1.0     0.583175      0.370410      0.344330     Biso  1.000000 H
   H763       1.0     0.690309      0.523643      0.856292     Biso  1.000000 H
   H764       1.0     0.591075      0.255985      0.097691     Biso  1.000000 H
   H765       1.0     0.597335      0.325919      0.139095     Biso  1.000000 H
   H766       1.0     0.677808      0.341111      0.575981     Biso  1.000000 H
   H767       1.0     0.669788      0.403714      0.506885     Biso  1.000000 H
   H768       1.0     0.649218      0.190447      0.789384     Biso  1.000000 H
   H769       1.0     0.637988      0.252355      0.709587     Biso  1.000000 H
   H770       1.0     0.668450      0.309875      0.697042     Biso  1.000000 H
   H771       1.0     0.724080      0.242160      0.836926     Biso  1.000000 H
   H772       1.0     0.693020      0.185379      0.846733     Biso  1.000000 H
   H773       1.0     0.756218      0.351782      0.507491     Biso  1.000000 H
   H774       1.0     0.822200      0.381317      0.602614     Biso  1.000000 H
   H775       1.0     0.787912      0.312811      0.809189     Biso  1.000000 H
   H776       1.0     0.755481      0.427096      0.718188     Biso  1.000000 H
   H777       1.0     0.789633      0.431821      0.613595     Biso  1.000000 H
   H778       1.0     0.737231      0.396036      0.309045     Biso  1.000000 H
   H779       1.0     0.707963      0.430359      0.204612     Biso  1.000000 H
   H780       1.0     0.719554      0.435457      0.059209     Biso  1.000000 H
   H781       1.0     0.787151      0.371292      0.087418     Biso  1.000000 H
   H782       1.0     0.821965      0.318957      0.704418     Biso  1.000000 H
   H783       1.0     0.750322      0.417669      0.462456     Biso  1.000000 H
   H784       1.0     0.705446      0.446588      0.447793     Biso  1.000000 H
   H785       1.0     0.786720      0.184421      0.275801     Biso  1.000000 H
   H786       1.0     0.636953      0.361434      0.108799     Biso  1.000000 H
   H787       1.0     0.658005      0.269063      0.932975     Biso  1.000000 H
   H788       1.0     0.620337      0.225306      0.988372     Biso  1.000000 H
   H789       1.0     0.753853      0.187633      0.965638     Biso  1.000000 H
   H790       1.0     0.773946      0.253140      0.034008     Biso  1.000000 H
   H791       1.0     0.744390      0.300624      0.106885     Biso  1.000000 H
   H792       1.0     0.681407      0.220412      0.072080     Biso  1.000000 H
   H793       1.0     0.712165      0.169351      0.986007     Biso  1.000000 H
   H794       1.0     0.612274      0.208007      0.338192     Biso  1.000000 H
   H795       1.0     0.621375      0.283852      0.368775     Biso  1.000000 H
   H796       1.0     0.661632      0.312050      0.334134     Biso  1.000000 H
   H797       1.0     0.690635      0.193928      0.277684     Biso  1.000000 H
   H798       1.0     0.646608      0.162849      0.285634     Biso  1.000000 H
   H799       1.0     0.769825      0.116937      0.309728     Biso  1.000000 H
   H800       1.0     0.732030      0.111976      0.402567     Biso  1.000000 H
   H801       1.0     0.711532      0.173587      0.461129     Biso  1.000000 H
   H802       1.0     0.769009      0.244950      0.333260     Biso  1.000000 H
   H803       1.0     0.056042      0.298298      0.975860     Biso  1.000000 H
   H804       1.0     0.499471      0.180798      0.221049     Biso  1.000000 H
   H805       1.0     0.052583      0.067597      0.425831     Biso  1.000000 H
   H806       1.0     0.991845      0.132232      0.294784     Biso  1.000000 H
   H807       1.0     0.501231      0.809381      0.585048     Biso  1.000000 H
   H808       1.0     0.386666      0.927651      0.697342     Biso  1.000000 H
   H809       1.0     0.366365      0.869664      0.617475     Biso  1.000000 H
   H810       1.0     0.367577      0.804559      0.663958     Biso  1.000000 H
   H811       1.0     0.409813      0.846202      0.894097     Biso  1.000000 H
   H812       1.0     0.407101      0.914436      0.831458     Biso  1.000000 H
   H813       1.0     0.371981      0.767601      0.216659     Biso  1.000000 H
   H814       1.0     0.458507      0.816212      0.628590     Biso  1.000000 H
   H815       1.0     0.373547      0.700089      0.145967     Biso  1.000000 H
   H816       1.0     0.358673      0.822914      0.972325     Biso  1.000000 H
   H817       1.0     0.368764      0.829706      0.130787     Biso  1.000000 H
   H818       1.0     0.307592      0.866282      0.565090     Biso  1.000000 H
   H819       1.0     0.324190      0.794731      0.542368     Biso  1.000000 H
   H820       1.0     0.324708      0.749923      0.670186     Biso  1.000000 H
   H821       1.0     0.293482      0.846096      0.817357     Biso  1.000000 H
   H822       1.0     0.292551      0.889665      0.700903     Biso  1.000000 H
   H823       1.0     0.362297      0.693994      0.996003     Biso  1.000000 H
   H824       1.0     0.197557      0.632562      0.984614     Biso  1.000000 H
   H825       1.0     0.457389      0.692517      0.704208     Biso  1.000000 H
   H826       1.0     0.525671      0.744743      0.596495     Biso  1.000000 H
   H827       1.0     0.355470      0.529653      0.567578     Biso  1.000000 H
   H828       1.0     0.498653      0.482343      0.465098     Biso  1.000000 H
   H829       1.0     0.466519      0.501823      0.570883     Biso  1.000000 H
   H830       1.0     0.438056      0.557148      0.544824     Biso  1.000000 H
   H831       1.0     0.467638      0.571263      0.294554     Biso  1.000000 H
   H832       1.0     0.498440      0.508782      0.319305     Biso  1.000000 H
   H833       1.0     0.462313      0.821276      0.272203     Biso  1.000000 H
   H834       1.0     0.500684      0.683736      0.668776     Biso  1.000000 H
   H835       1.0     0.484132      0.792002      0.412470     Biso  1.000000 H
   H836       1.0     0.421047      0.710848      0.263283     Biso  1.000000 H
   H837       1.0     0.433573      0.776346      0.199297     Biso  1.000000 H
   H838       1.0     0.327333      0.744067      0.344317     Biso  1.000000 H
   H839       1.0     0.339915      0.678247      0.396492     Biso  1.000000 H
   H840       1.0     0.377638      0.667055      0.475498     Biso  1.000000 H
   H841       1.0     0.389724      0.798373      0.476915     Biso  1.000000 H
   H842       1.0     0.353233      0.806136      0.390233     Biso  1.000000 H
   H843       1.0     0.472764      0.728159      0.466699     Biso  1.000000 H
   H844       1.0     0.389758      0.515444      0.464887     Biso  1.000000 H
   H845       1.0     0.190150      0.689840      0.889988     Biso  1.000000 H
   H846       1.0     0.275272      0.662855      0.006720     Biso  1.000000 H
   H847       1.0     0.202119      0.685470      0.677958     Biso  1.000000 H
   H848       1.0     0.262185      0.941815      0.324754     Biso  1.000000 H
   H849       1.0     0.214888      0.957347      0.315949     Biso  1.000000 H
   H850       1.0     0.184798      0.915910      0.420005     Biso  1.000000 H
   H851       1.0     0.250525      0.859890      0.531553     Biso  1.000000 H
   H852       1.0     0.277490      0.893610      0.435931     Biso  1.000000 H
   H853       1.0     0.100745      0.984277      0.781280     Biso  1.000000 H
   H854       1.0     0.180406      0.725691      0.563048     Biso  1.000000 H
   H855       1.0     0.087878      0.925213      0.705963     Biso  1.000000 H
   H856       1.0     0.177636      0.946009      0.769974     Biso  1.000000 H
   H857       1.0     0.145756      0.997668      0.805954     Biso  1.000000 H
   H858       1.0     0.115656      0.718344      0.732034     Biso  1.000000 H
   H859       1.0     0.792305      0.088660      0.446396     Biso  1.000000 H
   H860       1.0     0.124465      0.835001      0.854243     Biso  1.000000 H
   H861       1.0     0.187785      0.768341      0.742798     Biso  1.000000 H
   H862       1.0     0.159371      0.714465      0.708630     Biso  1.000000 H
   H863       1.0     0.120670      0.873136      0.668106     Biso  1.000000 H
   H864       1.0     0.225506      0.743661      0.878867     Biso  1.000000 H
   H865       1.0     0.250532      0.796114      0.545520     Biso  1.000000 H
   H866       1.0     0.243575      0.700274      0.723222     Biso  1.000000 H
   H867       1.0     0.241231      0.618385      0.035635     Biso  1.000000 H
   H868       1.0     0.323225      0.882660      0.249239     Biso  1.000000 H
   H869       1.0     0.333702      0.812337      0.264680     Biso  1.000000 H
   H870       1.0     0.306501      0.759110      0.191704     Biso  1.000000 H
   H871       1.0     0.257355      0.849871      0.100198     Biso  1.000000 H
   H872       1.0     0.283235      0.905197      0.157133     Biso  1.000000 H
   H873       1.0     0.279107      0.641989      0.379552     Biso  1.000000 H
   H874       1.0     0.267039      0.760618      0.662644     Biso  1.000000 H
   H875       1.0     0.284937      0.714162      0.424255     Biso  1.000000 H
   H876       1.0     0.228449      0.682317      0.180072     Biso  1.000000 H
   H877       1.0     0.250389      0.625327      0.258299     Biso  1.000000 H
   H878       1.0     0.107076      0.874367      0.213896     Biso  1.000000 H
   H879       1.0     0.150260      0.901488      0.188341     Biso  1.000000 H
   H880       1.0     0.186400      0.865785      0.229178     Biso  1.000000 H
   H881       1.0     0.137919      0.765272      0.327619     Biso  1.000000 H
   H882       1.0     0.102200      0.803088      0.279713     Biso  1.000000 H
   H883       1.0     0.260020      0.770285      0.361022     Biso  1.000000 H
   H884       1.0     0.359350      0.606748      0.300533     Biso  1.000000 H
   H885       1.0     0.321303      0.617691      0.398509     Biso  1.000000 H
   H886       1.0     0.326366      0.581721      0.542636     Biso  1.000000 H
   H887       1.0     0.020662      0.374422      0.525957     Biso  1.000000 H
   H888       1.0     0.064669      0.352061      0.505826     Biso  1.000000 H
   H889       1.0     0.943425      0.442349      0.056542     Biso  1.000000 H
   H890       1.0     0.974594      0.388701      0.076736     Biso  1.000000 H
   H891       1.0     0.995938      0.357959      0.944269     Biso  1.000000 H
   H892       1.0     0.954493      0.452350      0.796511     Biso  1.000000 H
   H893       1.0     0.932101      0.470056      0.921375     Biso  1.000000 H
   H894       1.0     0.003663      0.283746      0.710640     Biso  1.000000 H
   H895       1.0     0.039420      0.542838      0.638882     Biso  1.000000 H
   H896       1.0     0.066666      0.428416      0.709880     Biso  1.000000 H
   H897       1.0     0.012953      0.487079      0.870470     Biso  1.000000 H
   H898       1.0     0.015966      0.545294      0.778734     Biso  1.000000 H
   H899       1.0     0.008770      0.444945      0.197510     Biso  1.000000 H
   H900       1.0     0.024954      0.501962      0.128018     Biso  1.000000 H
   H901       1.0     0.050286      0.494982      0.994402     Biso  1.000000 H
   H902       1.0     0.055189      0.363854      0.053774     Biso  1.000000 H
   H903       1.0     0.065660      0.480357      0.611292     Biso  1.000000 H
   H904       1.0     0.024983      0.376611      0.173870     Biso  1.000000 H
   H905       1.0     0.047840      0.258365      0.695753     Biso  1.000000 H
   H906       1.0     0.921070      0.425711      0.415819     Biso  1.000000 H
   H907       1.0     0.069338      0.167901      0.254968     Biso  1.000000 H
   H908       1.0     0.082836      0.111490      0.350188     Biso  1.000000 H
   H909       1.0     0.086693      0.303192      0.360926     Biso  1.000000 H
   H910       1.0     0.078046      0.239765      0.428421     Biso  1.000000 H
   H911       1.0     0.035733      0.216749      0.435842     Biso  1.000000 H
   H912       1.0     0.013514      0.301057      0.238213     Biso  1.000000 H
   H913       1.0     0.054147      0.338055      0.265069     Biso  1.000000 H
   H914       1.0     0.077522      0.287582      0.580997     Biso  1.000000 H
   H915       1.0     0.911541      0.096629      0.430980     Biso  1.000000 H
   H916       1.0     0.912670      0.223972      0.389435     Biso  1.000000 H
   H917       1.0     0.981822      0.160721      0.474235     Biso  1.000000 H
   H918       1.0     0.953093      0.098139      0.489331     Biso  1.000000 H
   H919       1.0     0.955891      0.457402      0.344356     Biso  1.000000 H
   H920       1.0     0.993366      0.421177      0.314590     Biso  1.000000 H
   H921       1.0     0.004050      0.357704      0.401495     Biso  1.000000 H
   H922       1.0     0.922565      0.356237      0.471631     Biso  1.000000 H
   H923       1.0     0.889826      0.158140      0.386806     Biso  1.000000 H
   H924       1.0     0.193864      0.299083      0.016820     Biso  1.000000 H
   H925       1.0     0.194997      0.374306      0.056241     Biso  1.000000 H
   H926       1.0     0.162235      0.419355      0.004694     Biso  1.000000 H
   H927       1.0     0.277699      0.555986      0.547287     Biso  1.000000 H
   H928       1.0     0.261827      0.357040      0.058351     Biso  1.000000 H
   H929       1.0     0.292393      0.363238      0.925018     Biso  1.000000 H
   H930       1.0     0.305548      0.431569      0.882957     Biso  1.000000 H
   H931       1.0     0.269478      0.485133      0.095962     Biso  1.000000 H
   H932       1.0     0.251629      0.422754      0.135005     Biso  1.000000 H
   H933       1.0     0.299508      0.662170      0.171892     Biso  1.000000 H
   H934       1.0     0.274002      0.507705      0.662414     Biso  1.000000 H
   H935       1.0     0.327043      0.656721      0.058401     Biso  1.000000 H
   H936       1.0     0.306264      0.534435      0.216250     Biso  1.000000 H
   H937       1.0     0.293181      0.603506      0.273383     Biso  1.000000 H
   H938       1.0     0.375682      0.368594      0.346991     Biso  1.000000 H
   H939       1.0     0.348300      0.421080      0.415015     Biso  1.000000 H
   H940       1.0     0.343587      0.485148      0.343028     Biso  1.000000 H
   H941       1.0     0.398955      0.451549      0.154358     Biso  1.000000 H
   H942       1.0     0.398580      0.381875      0.214017     Biso  1.000000 H
   H943       1.0     0.342967      0.591847      0.004420     Biso  1.000000 H
   H944       1.0     0.274177      0.609355      0.836728     Biso  1.000000 H
   H945       1.0     0.275360      0.657394      0.701439     Biso  1.000000 H
   H946       1.0     0.284339      0.624475      0.565000     Biso  1.000000 H
   H947       1.0     0.126236      0.318278      0.872550     Biso  1.000000 H
   H948       1.0     0.162165      0.271938      0.920296     Biso  1.000000 H
   H949       1.0     0.116313      0.330134      0.509112     Biso  1.000000 H
   H950       1.0     0.092367      0.395390      0.549903     Biso  1.000000 H
   H951       1.0     0.108469      0.435733      0.660136     Biso  1.000000 H
   H952       1.0     0.169629      0.350448      0.711169     Biso  1.000000 H
   H953       1.0     0.150377      0.307225      0.595296     Biso  1.000000 H
   H954       1.0     0.161253      0.645525      0.636802     Biso  1.000000 H
   H955       1.0     0.131548      0.614259      0.734446     Biso  1.000000 H
   H956       1.0     0.138899      0.547672      0.801954     Biso  1.000000 H
   H957       1.0     0.207789      0.540324      0.666192     Biso  1.000000 H
   H958       1.0     0.201460      0.613100      0.602321     Biso  1.000000 H
   H959       1.0     0.200188      0.506350      0.174476     Biso  1.000000 H
   H960       1.0     0.197469      0.439126      0.086441     Biso  1.000000 H
   H961       1.0     0.208982      0.440029      0.936669     Biso  1.000000 H
   H962       1.0     0.226330      0.567751      0.947491     Biso  1.000000 H
   H963       1.0     0.214388      0.571005      0.099158     Biso  1.000000 H
   H964       1.0     0.005219      0.077307      0.387483     Biso  1.000000 H
   H965       1.0     0.523760      0.229060      0.150982     Biso  1.000000 H
   H966       1.0     0.330257      0.310682      0.308949     Biso  1.000000 H
   H967       1.0     0.367198      0.262835      0.353384     Biso  1.000000 H
   H968       1.0     0.157988      0.281477      0.235833     Biso  1.000000 H
   H969       1.0     0.152762      0.272138      0.396224     Biso  1.000000 H
   H970       1.0     0.173617      0.311376      0.492464     Biso  1.000000 H
   H971       1.0     0.218890      0.363536      0.291275     Biso  1.000000 H
   H972       1.0     0.189734      0.332233      0.188060     Biso  1.000000 H
   H973       1.0     0.231314      0.331305      0.917987     Biso  1.000000 H
   H974       1.0     0.249321      0.269260      0.815468     Biso  1.000000 H
   H975       1.0     0.235278      0.547862      0.517579     Biso  1.000000 H
   H976       1.0     0.260987      0.287466      0.679074     Biso  1.000000 H
   H977       1.0     0.227664      0.398156      0.858742     Biso  1.000000 H
   H978       1.0     0.312853      0.511523      0.449567     Biso  1.000000 H
   H979       1.0     0.296558      0.457144      0.340795     Biso  1.000000 H
   H980       1.0     0.292306      0.391451      0.391592     Biso  1.000000 H
   H981       1.0     0.313865      0.422842      0.639169     Biso  1.000000 H
   H982       1.0     0.320952      0.490469      0.596521     Biso  1.000000 H
   H983       1.0     0.303177      0.147639      0.624621     Biso  1.000000 H
   H984       1.0     0.235303      0.412808      0.711482     Biso  1.000000 H
   H985       1.0     0.313249      0.185846      0.749715     Biso  1.000000 H
   H986       1.0     0.209122      0.491597      0.542585     Biso  1.000000 H
   H987       1.0     0.240464      0.510850      0.254152     Biso  1.000000 H
   H988       1.0     0.033762      0.396515      0.409617     Biso  1.000000 H
   H989       1.0     0.061903      0.408442      0.282686     Biso  1.000000 H
   H990       1.0     0.078087      0.480426      0.252365     Biso  1.000000 H
   H991       1.0     0.044067      0.517930      0.497652     Biso  1.000000 H
   H992       1.0     0.028295      0.448720      0.519289     Biso  1.000000 H
   H993       1.0     0.184559      0.630779      0.225483     Biso  1.000000 H
   H994       1.0     0.160635      0.579247      0.141398     Biso  1.000000 H
   H995       1.0     0.213523      0.454776      0.279209     Biso  1.000000 H
   H996       1.0     0.128055      0.538605      0.209551     Biso  1.000000 H
   H997       1.0     0.181537      0.628987      0.381638     Biso  1.000000 H
   H998       1.0     0.113856      0.366243      0.170137     Biso  1.000000 H
   H999       1.0     0.138211      0.419682      0.110216     Biso  1.000000 H
   H1000      1.0     0.154894      0.476069      0.206801     Biso  1.000000 H
   H1001      1.0     0.119462      0.411140      0.421364     Biso  1.000000 H
   H1002      1.0     0.104080      0.358702      0.323586     Biso  1.000000 H
   H1003      1.0     0.252185      0.558955      0.378046     Biso  1.000000 H
   H1004      1.0     0.148372      0.587052      0.450983     Biso  1.000000 H
   H1005      1.0     0.026507      0.566796      0.026700     Biso  1.000000 H
   H1006      1.0     0.323979      0.259651      0.735192     Biso  1.000000 H
   H1007      1.0     0.305815      0.177132      0.473820     Biso  1.000000 H
   H1008      1.0     0.506100      0.564092      0.633089     Biso  1.000000 H
   H1009      1.0     0.481364      0.627189      0.660200     Biso  1.000000 H
   H1010      1.0     0.447121      0.630030      0.760358     Biso  1.000000 H
   H1011      1.0     0.459426      0.499879      0.814849     Biso  1.000000 H
   H1012      1.0     0.497311      0.503020      0.716976     Biso  1.000000 H
   H1013      1.0     0.445503      0.756257      0.980658     Biso  1.000000 H
   H1014      1.0     0.479647      0.730243      0.897217     Biso  1.000000 H
   H1015      1.0     0.371259      0.656796      0.622529     Biso  1.000000 H
   H1016      1.0     0.487633      0.656826      0.893319     Biso  1.000000 H
   H1017      1.0     0.414070      0.710793      0.044633     Biso  1.000000 H
   H1018      1.0     0.463263      0.402462      0.101289     Biso  1.000000 H
   H1019      1.0     0.445471      0.454715      0.193280     Biso  1.000000 H
   H1020      1.0     0.458331      0.529611      0.178209     Biso  1.000000 H
   H1021      1.0     0.504809      0.493368      0.963411     Biso  1.000000 H
   H1022      1.0     0.492056      0.423464      0.979662     Biso  1.000000 H
   H1023      1.0     0.600787      0.572985      0.889510     Biso  1.000000 H
   H1024      1.0     0.421119      0.634766      0.039774     Biso  1.000000 H
   H1025      1.0     0.323325      0.243798      0.458870     Biso  1.000000 H
   H1026      1.0     0.400936      0.602120      0.650151     Biso  1.000000 H
   H1027      1.0     0.325701      0.613713      0.837615     Biso  1.000000 H
   H1028      1.0     0.385117      0.277053      0.952328     Biso  1.000000 H
   H1029      1.0     0.402698      0.225798      0.829754     Biso  1.000000 H
   H1030      1.0     0.399937      0.245799      0.683062     Biso  1.000000 H
   H1031      1.0     0.365237      0.361510      0.757831     Biso  1.000000 H
   H1032      1.0     0.365962      0.339956      0.906610     Biso  1.000000 H
   H1033      1.0     0.482982      0.399284      0.446747     Biso  1.000000 H
   H1034      1.0     0.441545      0.387725      0.374447     Biso  1.000000 H
   H1035      1.0     0.356243      0.555143      0.855475     Biso  1.000000 H
   H1036      1.0     0.403346      0.395654      0.456216     Biso  1.000000 H
   H1037      1.0     0.486636      0.402859      0.601600     Biso  1.000000 H
   H1038      1.0     0.388759      0.401610      0.057864     Biso  1.000000 H
   H1039      1.0     0.350431      0.414048      0.977557     Biso  1.000000 H
   H1040      1.0     0.353778      0.440724      0.818837     Biso  1.000000 H
   H1041      1.0     0.434628      0.430541      0.843964     Biso  1.000000 H
   H1042      1.0     0.430644      0.408902      0.989208     Biso  1.000000 H
   H1043      1.0     0.333099      0.667321      0.724741     Biso  1.000000 H
   H1044      1.0     0.446690      0.401873      0.691402     Biso  1.000000 H
   H1045      1.0     0.057390      0.578562      0.151493     Biso  1.000000 H
   H1046      1.0     0.996051      0.611063      0.310417     Biso  1.000000 H
   H1047      1.0     0.964614      0.603627      0.188820     Biso  1.000000 H
   H1048      1.0     0.754963      0.972575      0.755362     Biso  1.000000 H
   H1049      1.0     0.598831      0.919127      0.000132     Biso  1.000000 H
   H1050      1.0     0.619941      0.987558      0.986957     Biso  1.000000 H
   H1051      1.0     0.663089      0.995636      0.033440     Biso  1.000000 H
   H1052      1.0     0.661295      0.875928      0.135828     Biso  1.000000 H
   H1053      1.0     0.618679      0.863274      0.087367     Biso  1.000000 H
   H1054      1.0     0.763495      0.121255      0.087635     Biso  1.000000 H
   H1055      1.0     0.721253      0.961095      0.854371     Biso  1.000000 H
   H1056      1.0     0.723569      0.133396      0.177768     Biso  1.000000 H
   H1057      1.0     0.760612      0.993807      0.143300     Biso  1.000000 H
   H1058      1.0     0.783733      0.053315      0.092376     Biso  1.000000 H
   H1059      1.0     0.728224      0.907550      0.679176     Biso  1.000000 H
   H1060      1.0     0.758179      0.883940      0.570117     Biso  1.000000 H
   H1061      1.0     0.764910      0.921037      0.430284     Biso  1.000000 H
   H1062      1.0     0.704615      0.001589      0.514510     Biso  1.000000 H
   H1063      1.0     0.703591      0.968375      0.657610     Biso  1.000000 H
   H1064      1.0     0.704422      0.069523      0.250700     Biso  1.000000 H
   H1065      1.0     0.839972      0.938492      0.267711     Biso  1.000000 H
   H1066      1.0     0.771321      0.883825      0.001282     Biso  1.000000 H
   H1067      1.0     0.797329      0.936566      0.772571     Biso  1.000000 H
   H1068      1.0     0.678055      0.580175      0.681741     Biso  1.000000 H
   H1069      1.0     0.734214      0.851748      0.346659     Biso  1.000000 H
   H1070      1.0     0.768195      0.814172      0.417083     Biso  1.000000 H
   H1071      1.0     0.759596      0.777735      0.552998     Biso  1.000000 H
   H1072      1.0     0.686191      0.832884      0.566308     Biso  1.000000 H
   H1073      1.0     0.690327      0.859226      0.418818     Biso  1.000000 H
   H1074      1.0     0.812807      0.763489      0.007644     Biso  1.000000 H
   H1075      1.0     0.804325      0.888870      0.889057     Biso  1.000000 H
   H1076      1.0     0.816417      0.821995      0.900293     Biso  1.000000 H
   H1077      1.0     0.736764      0.744986      0.941863     Biso  1.000000 H
   H1078      1.0     0.772408      0.731395      0.029701     Biso  1.000000 H
   H1079      1.0     0.624213      0.751035      0.938851     Biso  1.000000 H
   H1080      1.0     0.661011      0.725309      0.004386     Biso  1.000000 H
   H1081      1.0     0.703574      0.770636      0.996721     Biso  1.000000 H
   H1082      1.0     0.663419      0.853104      0.836837     Biso  1.000000 H
   H1083      1.0     0.626337      0.806270      0.836033     Biso  1.000000 H
   H1084      1.0     0.778217      0.838124      0.811927     Biso  1.000000 H
   H1085      1.0     0.825040      0.009646      0.212314     Biso  1.000000 H
   H1086      1.0     0.800784      0.054134      0.303156     Biso  1.000000 H
   H1087      1.0     0.801557      0.958011      0.492968     Biso  1.000000 H
   H1088      1.0     0.145762      0.504075      0.043023     Biso  1.000000 H
   H1089      1.0     0.100232      0.504964      0.073935     Biso  1.000000 H
   H1090      1.0     0.073280      0.565265      0.012117     Biso  1.000000 H
   H1091      1.0     0.137991      0.628016      0.940944     Biso  1.000000 H
   H1092      1.0     0.166663      0.563819      0.976242     Biso  1.000000 H
   H1093      1.0     0.184103      0.748764      0.033547     Biso  1.000000 H
   H1094      1.0     0.187171      0.684051      0.097882     Biso  1.000000 H
   H1095      1.0     0.049928      0.781517      0.903675     Biso  1.000000 H
   H1096      1.0     0.149229      0.640349      0.129077     Biso  1.000000 H
   H1097      1.0     0.140305      0.776055      0.991378     Biso  1.000000 H
   H1098      1.0     0.015154      0.790556      0.407250     Biso  1.000000 H
   H1099      1.0     0.992695      0.757503      0.280919     Biso  1.000000 H
   H1100      1.0     0.016247      0.699892      0.204657     Biso  1.000000 H
   H1101      1.0     0.081136      0.722082      0.341848     Biso  1.000000 H
   H1102      1.0     0.058695      0.773156      0.438924     Biso  1.000000 H
   H1103      1.0     0.980015      0.585191      0.050534     Biso  1.000000 H
   H1104      1.0     0.102869      0.734449      0.010486     Biso  1.000000 H
   H1105      1.0     0.067503      0.730700      0.801513     Biso  1.000000 H
   H1106      1.0     0.018380      0.641152      0.934634     Biso  1.000000 H
   H1107      1.0     0.004341      0.699404      0.036855     Biso  1.000000 H
   H1108      1.0     0.831343      0.918442      0.409388     Biso  1.000000 H
   H1109      1.0     0.896012      0.699489      0.242718     Biso  1.000000 H
   H1110      1.0     0.938791      0.668016      0.214336     Biso  1.000000 H
   H1111      1.0     0.970075      0.667194      0.321908     Biso  1.000000 H
   H1112      1.0     0.924786      0.744358      0.487271     Biso  1.000000 H
   H1113      1.0     0.890018      0.738612      0.375876     Biso  1.000000 H
   H1114      1.0     0.995934      0.812067      0.798585     Biso  1.000000 H
   H1115      1.0     0.982212      0.740425      0.829582     Biso  1.000000 H
   H1116      1.0     0.986761      0.687969      0.725883     Biso  1.000000 H
   H1117      1.0     0.013364      0.777811      0.549112     Biso  1.000000 H
   H1118      1.0     0.001309      0.830743      0.651095     Biso  1.000000 H
   H1119      1.0     0.131303      0.666861      0.468090     Biso  1.000000 H
   H1120      1.0     0.115959      0.598120      0.543995     Biso  1.000000 H
   H1121      1.0     0.082672      0.597372      0.619357     Biso  1.000000 H
   H1122      1.0     0.071445      0.727507      0.591359     Biso  1.000000 H
   H1123      1.0     0.107287      0.724763      0.488713     Biso  1.000000 H
   H1124      1.0     0.020172      0.763804      0.015857     Biso  1.000000 H
   H1125      1.0     0.583537      0.507881      0.905225     Biso  1.000000 H
   H1126      1.0     0.554833      0.488398      0.030388     Biso  1.000000 H
   H1127      1.0     0.557045      0.613555      0.107083     Biso  1.000000 H
   H1128      1.0     0.588103      0.629099      0.991192     Biso  1.000000 H
   H1129      1.0     0.428851      0.847606      0.428479     Biso  1.000000 H
   H1130      1.0     0.408997      0.899393      0.520635     Biso  1.000000 H
   H1131      1.0     0.363151      0.938279      0.312975     Biso  1.000000 H
   H1132      1.0     0.383583      0.897340      0.212856     Biso  1.000000 H
   H1133      1.0     0.257280      0.079781      0.442829     Biso  1.000000 H
   H1134      1.0     0.251981      0.004434      0.456337     Biso  1.000000 H
   H1135      1.0     0.288044      0.963960      0.503669     Biso  1.000000 H
   H1136      1.0     0.420725      0.850994      0.274659     Biso  1.000000 H
   H1137      1.0     0.329221      0.073265      0.555034     Biso  1.000000 H
   H1138      1.0     0.337465      0.888027      0.015167     Biso  1.000000 H
   H1139      1.0     0.373677      0.925098      0.965248     Biso  1.000000 H
   H1140      1.0     0.371316      0.965140      0.835867     Biso  1.000000 H
   H1141      1.0     0.293955      0.940375      0.809024     Biso  1.000000 H
   H1142      1.0     0.294713      0.898944      0.947963     Biso  1.000000 H
   H1143      1.0     0.398503      0.124099      0.919894     Biso  1.000000 H
   H1144      1.0     0.386822      0.060423      0.991218     Biso  1.000000 H
   H1145      1.0     0.292815      0.111857      0.507299     Biso  1.000000 H
   H1146      1.0     0.345168      0.029638      0.963660     Biso  1.000000 H
   H1147      1.0     0.394561      0.073705      0.720185     Biso  1.000000 H
   H1148      1.0     0.434304      0.948547      0.596112     Biso  1.000000 H
   H1149      1.0     0.562777      0.171079      0.107881     Biso  1.000000 H
   H1150      1.0     0.545132      0.150110      0.239419     Biso  1.000000 H
   H1151      1.0     0.552072      0.027240      0.165990     Biso  1.000000 H
   H1152      1.0     0.572614      0.047132      0.027092     Biso  1.000000 H
   H1153      1.0     0.533391      0.128932      0.689430     Biso  1.000000 H
   H1154      1.0     0.514165      0.171913      0.572434     Biso  1.000000 H
   H1155      1.0     0.498722      0.136953      0.437297     Biso  1.000000 H
   H1156      1.0     0.392494      0.061448      0.562595     Biso  1.000000 H
   H1157      1.0     0.521024      0.019559      0.539688     Biso  1.000000 H
   H1158      1.0     0.488705      0.871395      0.486167     Biso  1.000000 H
   H1159      1.0     0.494240      0.921492      0.609371     Biso  1.000000 H
   H1160      1.0     0.477286      0.992316      0.588162     Biso  1.000000 H
   H1161      1.0     0.455835      0.963888      0.334644     Biso  1.000000 H
   H1162      1.0     0.466696      0.893568      0.358980     Biso  1.000000 H
   H1163      1.0     0.417164      0.024150      0.812373     Biso  1.000000 H
   H1164      1.0     0.434690      0.962623      0.754634     Biso  1.000000 H
   H1165      1.0     0.537058      0.056914      0.671781     Biso  1.000000 H
   H1166      1.0     0.336692      0.111415      0.752178     Biso  1.000000 H
   H1167      1.0     0.374585      0.149334      0.793193     Biso  1.000000 H
   H1168      1.0     0.212229      0.951676      0.684089     Biso  1.000000 H
   H1169      1.0     0.366396      0.064950      0.135809     Biso  1.000000 H
   H1170      1.0     0.322439      0.026818      0.342843     Biso  1.000000 H
   H1171      1.0     0.309727      0.962126      0.274430     Biso  1.000000 H
   H1172      1.0     0.411739      0.161712      0.694866     Biso  1.000000 H
   H1173      1.0     0.366256      0.172701      0.652314     Biso  1.000000 H
   H1174      1.0     0.351262      0.154107      0.505921     Biso  1.000000 H
   H1175      1.0     0.429744      0.129193      0.434789     Biso  1.000000 H
   H1176      1.0     0.355560      0.000276      0.061169     Biso  1.000000 H
   H1177      1.0     0.440865      0.136438      0.587824     Biso  1.000000 H
   H1178      1.0     0.402456      0.199680      0.962537     Biso  1.000000 H
   H1179      1.0     0.381791      0.204107      0.102476     Biso  1.000000 H
   H1180      1.0     0.451925      0.160323      0.217342     Biso  1.000000 H
   H1181      1.0     0.470979      0.154950      0.072833     Biso  1.000000 H
   H1182      1.0     0.328805      0.325343      0.147377     Biso  1.000000 H
   H1183      1.0     0.369612      0.331593      0.070032     Biso  1.000000 H
   H1184      1.0     0.404731      0.293234      0.112003     Biso  1.000000 H
   H1185      1.0     0.446043      0.178827      0.950305     Biso  1.000000 H
   H1186      1.0     0.328422      0.947931      0.128675     Biso  1.000000 H
   H1187      1.0     0.286020      0.273172      0.306709     Biso  1.000000 H
   H1188      1.0     0.314928      0.224209      0.241339     Biso  1.000000 H
   H1189      1.0     0.223838      0.014434      0.617156     Biso  1.000000 H
   H1190      1.0     0.249202      0.067961      0.714092     Biso  1.000000 H
   H1191      1.0     0.247544      0.985905      0.916793     Biso  1.000000 H
   H1192      1.0     0.223049      0.931763      0.834221     Biso  1.000000 H
   H1193      1.0     0.176792      0.214781      0.023793     Biso  1.000000 H
   H1194      1.0     0.210060      0.245086      0.932962     Biso  1.000000 H
   H1195      1.0     0.247973      0.204028      0.899929     Biso  1.000000 H
   H1196      1.0     0.220317      0.109040      0.061553     Biso  1.000000 H
   H1197      1.0     0.181467      0.148188      0.091961     Biso  1.000000 H
   H1198      1.0     0.339591      0.260654      0.978418     Biso  1.000000 H
   H1199      1.0     0.296045      0.273836      0.020457     Biso  1.000000 H
   H1200      1.0     0.269958      0.218080      0.080250     Biso  1.000000 H
   H1201      1.0     0.330333      0.134930      0.030670     Biso  1.000000 H
   H1202      1.0     0.357336      0.188051      0.977404     Biso  1.000000 H
   H1203      1.0     0.250442      0.251939      0.394087     Biso  1.000000 H
   H1204      1.0     0.241885      0.179260      0.413082     Biso  1.000000 H
   H1205      1.0     0.268245      0.129184      0.339876     Biso  1.000000 H
   H1206      1.0     0.575649      0.124508      0.998045     Biso  1.000000 H
   H1207      1.0     0.674005      0.711327      0.829876     Biso  1.000000 H
   H1208      1.0     0.167345      0.982018      0.466335     Biso  1.000000 H
   H1209      1.0     0.081694      0.998468      0.359816     Biso  1.000000 H
   H1210      1.0     0.761886      0.471457      0.491641     Biso  1.000000 H
   H1211      1.0     0.742174      0.523628      0.575031     Biso  1.000000 H
   H1212      1.0     0.727775      0.588004      0.512353     Biso  1.000000 H
   H1213      1.0     0.753357      0.546519      0.264099     Biso  1.000000 H
   H1214      1.0     0.763747      0.479595      0.324129     Biso  1.000000 H
   H1215      1.0     0.694320      0.773302      0.152692     Biso  1.000000 H
   H1216      1.0     0.696974      0.773068      0.302486     Biso  1.000000 H
   H1217      1.0     0.652408      0.623374      0.079212     Biso  1.000000 H
   H1218      1.0     0.724419      0.730167      0.387138     Biso  1.000000 H
   H1219      1.0     0.720637      0.721252      0.067460     Biso  1.000000 H
   H1220      1.0     0.858385      0.630242      0.106745     Biso  1.000000 H
   H1221      1.0     0.854847      0.625245      0.270435     Biso  1.000000 H
   H1222      1.0     0.826510      0.670542      0.351579     Biso  1.000000 H
   H1223      1.0     0.805835      0.727301      0.122365     Biso  1.000000 H
   H1224      1.0     0.831984      0.680436      0.030912     Biso  1.000000 H
   H1225      1.0     0.745111      0.899302      0.181941     Biso  1.000000 H
   H1226      1.0     0.748205      0.674593      0.143944     Biso  1.000000 H
   H1227      1.0     0.777281      0.917514      0.290426     Biso  1.000000 H
   H1228      1.0     0.659490      0.635133      0.227072     Biso  1.000000 H
   H1229      1.0     0.693013      0.514188      0.086754     Biso  1.000000 H
   H1230      1.0     0.561605      0.361461      0.151244     Biso  1.000000 H
   H1231      1.0     0.597122      0.406613      0.089440     Biso  1.000000 H
   H1232      1.0     0.601529      0.471884      0.143096     Biso  1.000000 H
   H1233      1.0     0.536411      0.461219      0.296762     Biso  1.000000 H
   H1234      1.0     0.528514      0.390533      0.230869     Biso  1.000000 H
   H1235      1.0     0.657142      0.373327      0.251121     Biso  1.000000 H
   H1236      1.0     0.633461      0.372548      0.395676     Biso  1.000000 H
   H1237      1.0     0.706565      0.525663      0.240280     Biso  1.000000 H
   H1238      1.0     0.612504      0.439232      0.433252     Biso  1.000000 H
   H1239      1.0     0.663632      0.435566      0.170233     Biso  1.000000 H
   H1240      1.0     0.607246      0.558655      0.725775     Biso  1.000000 H
   H1241      1.0     0.644046      0.517463      0.699588     Biso  1.000000 H
   H1242      1.0     0.661908      0.522843      0.553272     Biso  1.000000 H
   H1243      1.0     0.611706      0.618658      0.488878     Biso  1.000000 H
   H1244      1.0     0.592348      0.612879      0.637293     Biso  1.000000 H
   H1245      1.0     0.671814      0.560729      0.005340     Biso  1.000000 H
   H1246      1.0     0.642167      0.498745      0.217948     Biso  1.000000 H
   H1247      1.0     0.811158      0.867786      0.331473     Biso  1.000000 H
   H1248      1.0     0.786252      0.785456      0.145118     Biso  1.000000 H
   H1249      1.0     0.749215      0.832875      0.105245     Biso  1.000000 H
   H1250      1.0     0.108708      0.841781      0.029664     Biso  1.000000 H
   H1251      1.0     0.072517      0.833488      0.125881     Biso  1.000000 H
   H1252      1.0     0.033492      0.923354      0.988672     Biso  1.000000 H
   H1253      1.0     0.070527      0.930880      0.883174     Biso  1.000000 H
   H1254      1.0     0.042812      0.055908      0.201058     Biso  1.000000 H
   H1255      1.0     0.077023      0.015602      0.132912     Biso  1.000000 H
   H1256      1.0     0.080292      0.942376      0.175191     Biso  1.000000 H
   H1257      1.0     0.105716      0.888109      0.904026     Biso  1.000000 H
   H1258      1.0     0.010207      0.946649      0.312656     Biso  1.000000 H
   H1259      1.0     0.101092      0.774909      0.627493     Biso  1.000000 H
   H1260      1.0     0.131121      0.814487      0.543669     Biso  1.000000 H
   H1261      1.0     0.116253      0.872966      0.452770     Biso  1.000000 H
   H1262      1.0     0.039988      0.853674      0.550242     Biso  1.000000 H
   H1263      1.0     0.053608      0.798549      0.636279     Biso  1.000000 H
   H1264      1.0     0.158681      0.009692      0.318737     Biso  1.000000 H
   H1265      1.0     0.114661      0.020629      0.277377     Biso  1.000000 H
   H1266      1.0     0.009584      0.023101      0.282329     Biso  1.000000 H
   H1267      1.0     0.948904      0.809808      0.865129     Biso  1.000000 H
   H1268      1.0     0.964373      0.852076      0.975611     Biso  1.000000 H
   H1269      1.0     0.972837      0.754538      0.147894     Biso  1.000000 H
   H1270      1.0     0.887576      0.748133      0.939215     Biso  1.000000 H
   H1271      1.0     0.849625      0.790698      0.930914     Biso  1.000000 H
   H1272      1.0     0.838824      0.837645      0.053156     Biso  1.000000 H
   H1273      1.0     0.893427      0.778760      0.206194     Biso  1.000000 H
   H1274      1.0     0.906440      0.733975      0.075156     Biso  1.000000 H
   H1275      1.0     0.848491      0.017191      0.034010     Biso  1.000000 H
   H1276      1.0     0.868371      0.023771      0.176109     Biso  1.000000 H
   H1277      1.0     0.890761      0.964967      0.236956     Biso  1.000000 H
   H1278      1.0     0.875054      0.893874      0.007556     Biso  1.000000 H
   H1279      1.0     0.849757      0.952459      0.953897     Biso  1.000000 H
   H1280      1.0     0.971697      0.854453      0.540256     Biso  1.000000 H
   H1281      1.0     0.949886      0.796584      0.464421     Biso  1.000000 H
   H1282      1.0     0.941634      0.801378      0.307928     Biso  1.000000 H
   H1283      1.0     0.966670      0.925844      0.313901     Biso  1.000000 H
   H1284      1.0     0.976668      0.919276      0.464638     Biso  1.000000 H
   H1285      1.0     0.939569      0.733933      0.898640     Biso  1.000000 H
   H1286      1.0     0.948714      0.706602      0.038533     Biso  1.000000 H
   H1287      1.0     0.133410      0.950764      0.553834     Biso  1.000000 H
   H1288      1.0     0.803798      0.857998      0.517681     Biso  1.000000 H

# Number_of_total_atoms: 2568
# Number_of_atom_type: 2
# Name_of_each_atom:  C  H
# Number_of_each_atom: 1280 1288 
# Created_by: Lihua Chen (lihua.chen@mse.gatech.edu)
# Tool: VASP
# K-points: 1 1 1
# Pseudopotential: PBE-HSE06
# Material_class: MC_Pol
# Geometry_class: GC_PD
# Bandgap_(eV): 4.85

# Note: average bandgap of 5 configurations
# Note:  HSE06 Band gap is derived from PBE band gap, based on Eg (HSE06)=1.140*Eg (PBE) + 0.799, R2=0.97


