#======================================================================

# Note: Amorphous region of atactic polystyrene
# Common_name: Amorphous region
#----------------------------------------------------------------------

data_VESTA_phase_1


_chemical_name_common                  'C  H                                  '
_cell_length_a                         31.29074
_cell_length_b                         40.55146
_cell_length_c                         21.61413
_cell_angle_alpha                      90
_cell_angle_beta                       90
_cell_angle_gamma                      90
_space_group_name_H-M_alt              'P 1'
_space_group_IT_number                 1

loop_
_space_group_symop_operation_xyz
   'x, y, z'

loop_
   _atom_site_label
   _atom_site_occupancy
   _atom_site_fract_x
   _atom_site_fract_y
   _atom_site_fract_z
   _atom_site_adp_type
   _atom_site_B_iso_or_equiv
   _atom_site_type_symbol
   C1         1.0     0.753963      0.950465      0.251834     Biso  1.000000 C
   C2         1.0     0.829542      0.797082      0.483298     Biso  1.000000 C
   C3         1.0     0.791303      0.801427      0.516165     Biso  1.000000 C
   C4         1.0     0.757239      0.779499      0.508309     Biso  1.000000 C
   C5         1.0     0.830491      0.768350      0.445082     Biso  1.000000 C
   C6         1.0     0.798727      0.743959      0.445883     Biso  1.000000 C
   C7         1.0     0.760662      0.749587      0.478112     Biso  1.000000 C
   C8         1.0     0.763512      0.586029      0.632557     Biso  1.000000 C
   C9         1.0     0.648677      0.730448      0.332952     Biso  1.000000 C
   C10        1.0     0.742586      0.611535      0.662685     Biso  1.000000 C
   C11        1.0     0.765721      0.586310      0.567312     Biso  1.000000 C
   C12        1.0     0.746175      0.612797      0.534329     Biso  1.000000 C
   C13        1.0     0.727857      0.639936      0.565069     Biso  1.000000 C
   C14        1.0     0.500642      0.670334      0.594262     Biso  1.000000 C
   C15        1.0     0.530421      0.663336      0.641542     Biso  1.000000 C
   C16        1.0     0.572216      0.653279      0.624743     Biso  1.000000 C
   C17        1.0     0.514142      0.664907      0.532692     Biso  1.000000 C
   C18        1.0     0.725993      0.638979      0.630951     Biso  1.000000 C
   C19        1.0     0.555662      0.656372      0.516559     Biso  1.000000 C
   C20        1.0     0.614791      0.752425      0.330403     Biso  1.000000 C
   C21        1.0     0.642767      0.699374      0.302509     Biso  1.000000 C
   C22        1.0     0.547794      0.899228      0.248563     Biso  1.000000 C
   C23        1.0     0.552367      0.864229      0.237676     Biso  1.000000 C
   C24        1.0     0.623238      0.924717      0.389628     Biso  1.000000 C
   C25        1.0     0.606533      0.893017      0.400708     Biso  1.000000 C
   C26        1.0     0.619131      0.865106      0.366458     Biso  1.000000 C
   C27        1.0     0.653205      0.928127      0.343029     Biso  1.000000 C
   C28        1.0     0.666062      0.901026      0.306256     Biso  1.000000 C
   C29        1.0     0.576096      0.744669      0.299428     Biso  1.000000 C
   C30        1.0     0.649520      0.869572      0.318855     Biso  1.000000 C
   C31        1.0     0.798107      0.821572      0.186615     Biso  1.000000 C
   C32        1.0     0.767200      0.816812      0.233600     Biso  1.000000 C
   C33        1.0     0.766721      0.777031      0.124167     Biso  1.000000 C
   C34        1.0     0.737521      0.773485      0.174494     Biso  1.000000 C
   C35        1.0     0.734625      0.793481      0.227946     Biso  1.000000 C
   C36        1.0     0.571593      0.713876      0.269179     Biso  1.000000 C
   C37        1.0     0.605939      0.691530      0.270123     Biso  1.000000 C
   C38        1.0     0.796247      0.802379      0.130505     Biso  1.000000 C
   C39        1.0     0.512831      0.913761      0.278279     Biso  1.000000 C
   C40        1.0     0.585952      0.650596      0.562982     Biso  1.000000 C
   C41        1.0     0.571091      0.538576      0.361845     Biso  1.000000 C
   C42        1.0     0.579666      0.409424      0.471718     Biso  1.000000 C
   C43        1.0     0.597630      0.440362      0.474989     Biso  1.000000 C
   C44        1.0     0.817973      0.404637      0.344190     Biso  1.000000 C
   C45        1.0     0.798555      0.435536      0.336103     Biso  1.000000 C
   C46        1.0     0.754500      0.439926      0.349598     Biso  1.000000 C
   C47        1.0     0.795710      0.377482      0.371690     Biso  1.000000 C
   C48        1.0     0.753263      0.382761      0.388180     Biso  1.000000 C
   C49        1.0     0.538193      0.403708      0.457930     Biso  1.000000 C
   C50        1.0     0.732030      0.413589      0.378501     Biso  1.000000 C
   C51        1.0     0.683179      0.381260      0.143854     Biso  1.000000 C
   C52        1.0     0.685694      0.378118      0.208723     Biso  1.000000 C
   C53        1.0     0.603401      0.384783      0.157091     Biso  1.000000 C
   C54        1.0     0.608444      0.382549      0.221358     Biso  1.000000 C
   C55        1.0     0.650198      0.379008      0.246966     Biso  1.000000 C
   C56        1.0     0.751058      0.277747      0.275559     Biso  1.000000 C
   C57        1.0     0.720487      0.285031      0.229538     Biso  1.000000 C
   C58        1.0     0.640661      0.383718      0.120327     Biso  1.000000 C
   C59        1.0     0.607955      0.524125      0.335580     Biso  1.000000 C
   C60        1.0     0.572683      0.467261      0.459730     Biso  1.000000 C
   C61        1.0     0.511233      0.430922      0.442658     Biso  1.000000 C
   C62        1.0     0.575224      0.555123      0.417822     Biso  1.000000 C
   C63        1.0     0.647718      0.526322      0.367980     Biso  1.000000 C
   C64        1.0     0.651144      0.545554      0.422870     Biso  1.000000 C
   C65        1.0     0.613075      0.559110      0.449265     Biso  1.000000 C
   C66        1.0     0.475239      0.574651      0.627583     Biso  1.000000 C
   C67        1.0     0.510313      0.578966      0.665623     Biso  1.000000 C
   C68        1.0     0.550807      0.564484      0.650156     Biso  1.000000 C
   C69        1.0     0.529609      0.462497      0.439156     Biso  1.000000 C
   C70        1.0     0.480560      0.556407      0.573036     Biso  1.000000 C
   C71        1.0     0.555221      0.545451      0.597469     Biso  1.000000 C
   C72        1.0     0.653205      0.409362      0.748648     Biso  1.000000 C
   C73        1.0     0.614174      0.406134      0.714614     Biso  1.000000 C
   C74        1.0     0.604737      0.427726      0.667849     Biso  1.000000 C
   C75        1.0     0.684307      0.433546      0.731450     Biso  1.000000 C
   C76        1.0     0.676864      0.454280      0.681895     Biso  1.000000 C
   C77        1.0     0.636692      0.451262      0.651753     Biso  1.000000 C
   C78        1.0     0.520402      0.541385      0.558536     Biso  1.000000 C
   C79        1.0     0.680609      0.297383      0.246971     Biso  1.000000 C
   C80        1.0     0.518235      0.845208      0.256627     Biso  1.000000 C
   C81        1.0     0.477728      0.893529      0.297817     Biso  1.000000 C
   C82        1.0     0.440129      0.516468      0.820827     Biso  1.000000 C
   C83        1.0     0.485379      0.510431      0.821262     Biso  1.000000 C
   C84        1.0     0.380166      0.556412      0.016933     Biso  1.000000 C
   C85        1.0     0.413239      0.577829      0.024604     Biso  1.000000 C
   C86        1.0     0.453718      0.567657      0.013540     Biso  1.000000 C
   C87        1.0     0.387631      0.522460      0.003305     Biso  1.000000 C
   C88        1.0     0.430267      0.512320      0.984877     Biso  1.000000 C
   C89        1.0     0.413454      0.501472      0.776953     Biso  1.000000 C
   C90        1.0     0.464382      0.534983      0.995361     Biso  1.000000 C
   C91        1.0     0.505196      0.467328      0.250159     Biso  1.000000 C
   C92        1.0     0.501908      0.488901      0.200978     Biso  1.000000 C
   C93        1.0     0.579343      0.455787      0.219688     Biso  1.000000 C
   C94        1.0     0.576054      0.478635      0.170527     Biso  1.000000 C
   C95        1.0     0.536679      0.496922      0.162366     Biso  1.000000 C
   C96        1.0     0.676442      0.635233      0.184842     Biso  1.000000 C
   C97        1.0     0.652962      0.638873      0.129841     Biso  1.000000 C
   C98        1.0     0.544547      0.451121      0.257797     Biso  1.000000 C
   C99        1.0     0.615913      0.620915      0.118087     Biso  1.000000 C
   C100       1.0     0.504727      0.491522      0.775051     Biso  1.000000 C
   C101       1.0     0.434124      0.481288      0.732163     Biso  1.000000 C
   C102       1.0     0.820149      0.609269      0.823256     Biso  1.000000 C
   C103       1.0     0.834351      0.553448      0.742763     Biso  1.000000 C
   C104       1.0     0.796318      0.556832      0.775260     Biso  1.000000 C
   C105       1.0     0.789274      0.583738      0.815002     Biso  1.000000 C
   C106       1.0     0.670271      0.522248      0.028839     Biso  1.000000 C
   C107       1.0     0.657807      0.555142      0.035041     Biso  1.000000 C
   C108       1.0     0.659686      0.575460      0.980958     Biso  1.000000 C
   C109       1.0     0.478796      0.476738      0.729387     Biso  1.000000 C
   C110       1.0     0.680491      0.508123      0.970266     Biso  1.000000 C
   C111       1.0     0.669376      0.562787      0.922978     Biso  1.000000 C
   C112       1.0     0.519744      0.655987      0.902315     Biso  1.000000 C
   C113       1.0     0.518849      0.641467      0.841638     Biso  1.000000 C
   C114       1.0     0.541025      0.612067      0.830890     Biso  1.000000 C
   C115       1.0     0.541028      0.639460      0.950562     Biso  1.000000 C
   C116       1.0     0.564332      0.611969      0.939643     Biso  1.000000 C
   C117       1.0     0.562744      0.597385      0.883314     Biso  1.000000 C
   C118       1.0     0.680526      0.529543      0.917232     Biso  1.000000 C
   C119       1.0     0.481662      0.858971      0.286353     Biso  1.000000 C
   C120       1.0     0.659814      0.614926      0.230403     Biso  1.000000 C
   C121       1.0     0.597706      0.599878      0.165046     Biso  1.000000 C
   C122       1.0     0.439433      0.750265      0.921511     Biso  1.000000 C
   C123       1.0     0.500623      0.733863      0.834605     Biso  1.000000 C
   C124       1.0     0.513566      0.746442      0.888718     Biso  1.000000 C
   C125       1.0     0.484379      0.755998      0.934429     Biso  1.000000 C
   C126       1.0     0.394793      0.880470      0.166947     Biso  1.000000 C
   C127       1.0     0.418788      0.896999      0.123576     Biso  1.000000 C
   C128       1.0     0.447978      0.879478      0.085167     Biso  1.000000 C
   C129       1.0     0.425751      0.737286      0.864410     Biso  1.000000 C
   C130       1.0     0.404128      0.848118      0.183285     Biso  1.000000 C
   C131       1.0     0.454843      0.845948      0.096283     Biso  1.000000 C
   C132       1.0     0.620956      0.944475      0.025726     Biso  1.000000 C
   C133       1.0     0.592299      0.947801      0.077339     Biso  1.000000 C
   C134       1.0     0.569334      0.919953      0.096636     Biso  1.000000 C
   C135       1.0     0.630773      0.912382      0.999132     Biso  1.000000 C
   C136       1.0     0.608911      0.885845      0.023621     Biso  1.000000 C
   C137       1.0     0.579784      0.889081      0.072142     Biso  1.000000 C
   C138       1.0     0.433351      0.831401      0.147097     Biso  1.000000 C
   C139       1.0     0.619757      0.598329      0.221312     Biso  1.000000 C
   C140       1.0     0.457304      0.730204      0.819458     Biso  1.000000 C
   C141       1.0     0.592842      0.714779      0.998007     Biso  1.000000 C
   C142       1.0     0.482071      0.598872      0.383706     Biso  1.000000 C
   C143       1.0     0.470579      0.575008      0.337935     Biso  1.000000 C
   C144       1.0     0.479847      0.582495      0.274088     Biso  1.000000 C
   C145       1.0     0.499278      0.629310      0.367887     Biso  1.000000 C
   C146       1.0     0.504362      0.637398      0.304082     Biso  1.000000 C
   C147       1.0     0.495315      0.614139      0.258639     Biso  1.000000 C
   C148       1.0     0.347763      0.701157      0.022409     Biso  1.000000 C
   C149       1.0     0.566266      0.722288      0.050349     Biso  1.000000 C
   C150       1.0     0.354634      0.698614      0.085332     Biso  1.000000 C
   C151       1.0     0.381949      0.690035      0.985081     Biso  1.000000 C
   C152       1.0     0.421395      0.679283      0.010467     Biso  1.000000 C
   C153       1.0     0.426250      0.677772      0.076131     Biso  1.000000 C
   C154       1.0     0.653266      0.732241      0.056812     Biso  1.000000 C
   C155       1.0     0.629025      0.740228      0.106388     Biso  1.000000 C
   C156       1.0     0.583756      0.736085      0.103702     Biso  1.000000 C
   C157       1.0     0.636692      0.719346      0.001435     Biso  1.000000 C
   C158       1.0     0.393010      0.689843      0.113733     Biso  1.000000 C
   C159       1.0     0.856038      0.607493      0.787183     Biso  1.000000 C
   C160       1.0     0.738742      0.278415      0.337916     Biso  1.000000 C
   C161       1.0     0.669622      0.300557      0.310804     Biso  1.000000 C
   C162       1.0     0.842124      0.522401      0.515615     Biso  1.000000 C
   C163       1.0     0.853005      0.513708      0.453290     Biso  1.000000 C
   C164       1.0     0.744686      0.634257      0.346614     Biso  1.000000 C
   C165       1.0     0.738604      0.599146      0.338703     Biso  1.000000 C
   C166       1.0     0.775455      0.579600      0.330278     Biso  1.000000 C
   C167       1.0     0.786842      0.646202      0.350163     Biso  1.000000 C
   C168       1.0     0.823421      0.627253      0.340373     Biso  1.000000 C
   C169       1.0     0.832354      0.495638      0.554673     Biso  1.000000 C
   C170       1.0     0.817007      0.593678      0.329713     Biso  1.000000 C
   C171       1.0     0.792058      0.603412      0.055587     Biso  1.000000 C
   C172       1.0     0.803221      0.602924      0.118353     Biso  1.000000 C
   C173       1.0     0.859052      0.575908      0.029646     Biso  1.000000 C
   C174       1.0     0.873529      0.580510      0.090141     Biso  1.000000 C
   C175       1.0     0.846364      0.593459      0.134879     Biso  1.000000 C
   C176       1.0     0.838599      0.727829      0.283716     Biso  1.000000 C
   C177       1.0     0.876357      0.714029      0.307977     Biso  1.000000 C
   C178       1.0     0.820475      0.591213      0.013273     Biso  1.000000 C
   C179       1.0     0.898603      0.690435      0.270752     Biso  1.000000 C
   C180       1.0     0.852897      0.480422      0.433715     Biso  1.000000 C
   C181       1.0     0.828474      0.463868      0.534871     Biso  1.000000 C
   C182       1.0     0.152156      0.536988      0.593180     Biso  1.000000 C
   C183       1.0     0.183424      0.598519      0.626885     Biso  1.000000 C
   C184       1.0     0.138459      0.591225      0.630702     Biso  1.000000 C
   C185       1.0     0.122658      0.560094      0.618441     Biso  1.000000 C
   C186       1.0     0.945787      0.481572      0.672817     Biso  1.000000 C
   C187       1.0     0.962472      0.473414      0.613851     Biso  1.000000 C
   C188       1.0     0.981344      0.497677      0.574396     Biso  1.000000 C
   C189       1.0     0.839883      0.455296      0.474290     Biso  1.000000 C
   C190       1.0     0.944786      0.514584      0.690315     Biso  1.000000 C
   C191       1.0     0.981433      0.531205      0.592356     Biso  1.000000 C
   C192       1.0     0.890870      0.649070      0.564814     Biso  1.000000 C
   C193       1.0     0.904941      0.651144      0.504395     Biso  1.000000 C
   C194       1.0     0.917408      0.620430      0.475511     Biso  1.000000 C
   C195       1.0     0.883596      0.619197      0.595743     Biso  1.000000 C
   C196       1.0     0.896184      0.589703      0.567164     Biso  1.000000 C
   C197       1.0     0.914285      0.590746      0.507925     Biso  1.000000 C
   C198       1.0     0.963354      0.539071      0.652562     Biso  1.000000 C
   C199       1.0     0.194731      0.545838      0.583075     Biso  1.000000 C
   C200       1.0     0.820929      0.713590      0.230565     Biso  1.000000 C
   C201       1.0     0.882449      0.677722      0.215482     Biso  1.000000 C
   C202       1.0     0.204341      0.578801      0.147319     Biso  1.000000 C
   C203       1.0     0.264186      0.606487      0.064253     Biso  1.000000 C
   C204       1.0     0.222921      0.621189      0.074787     Biso  1.000000 C
   C205       1.0     0.192427      0.607022      0.114997     Biso  1.000000 C
   C206       1.0     0.142131      0.722133      0.982217     Biso  1.000000 C
   C207       1.0     0.111214      0.720360      0.029276     Biso  1.000000 C
   C208       1.0     0.121866      0.708414      0.089794     Biso  1.000000 C
   C209       1.0     0.245324      0.565887      0.141390     Biso  1.000000 C
   C210       1.0     0.183932      0.713756      0.000233     Biso  1.000000 C
   C211       1.0     0.164358      0.700049      0.103717     Biso  1.000000 C
   C212       1.0     0.324903      0.655632      0.249530     Biso  1.000000 C
   C213       1.0     0.289852      0.633184      0.248470     Biso  1.000000 C
   C214       1.0     0.248354      0.645711      0.255600     Biso  1.000000 C
   C215       1.0     0.319276      0.688661      0.262475     Biso  1.000000 C
   C216       1.0     0.276998      0.701130      0.273116     Biso  1.000000 C
   C217       1.0     0.241668      0.679984      0.272140     Biso  1.000000 C
   C218       1.0     0.194526      0.702128      0.057039     Biso  1.000000 C
   C219       1.0     0.842338      0.691135      0.193326     Biso  1.000000 C
   C220       1.0     0.275125      0.578648      0.101253     Biso  1.000000 C
   C221       1.0     0.047371      0.571714      0.065333     Biso  1.000000 C
   C222       1.0     0.960683      0.786843      0.212128     Biso  1.000000 C
   C223       1.0     0.921815      0.774718      0.186462     Biso  1.000000 C
   C224       1.0     0.923365      0.744548      0.151515     Biso  1.000000 C
   C225       1.0     0.999438      0.768688      0.204369     Biso  1.000000 C
   C226       1.0     0.999196      0.738043      0.174718     Biso  1.000000 C
   C227       1.0     0.960609      0.725780      0.145863     Biso  1.000000 C
   C228       1.0     0.933860      0.668677      0.862915     Biso  1.000000 C
   C229       1.0     0.054111      0.600724      0.100747     Biso  1.000000 C
   C230       1.0     0.915989      0.654041      0.916760     Biso  1.000000 C
   C231       1.0     0.976735      0.679656      0.863887     Biso  1.000000 C
   C232       1.0     0.000935      0.676788      0.921766     Biso  1.000000 C
   C233       1.0     0.980784      0.661353      0.973482     Biso  1.000000 C
   C234       1.0     0.008423      0.546267      0.148365     Biso  1.000000 C
   C235       1.0     0.014917      0.573790      0.186903     Biso  1.000000 C
   C236       1.0     0.037892      0.601338      0.160964     Biso  1.000000 C
   C237       1.0     0.023792      0.545623      0.086894     Biso  1.000000 C
   C238       1.0     0.939060      0.650147      0.970604     Biso  1.000000 C
   C239       1.0     0.699730      0.290782      0.356811     Biso  1.000000 C
   C240       1.0     0.211924      0.575876      0.602669     Biso  1.000000 C
   C241       1.0     0.481573      0.417724      0.078720     Biso  1.000000 C
   C242       1.0     0.290126      0.222580      0.550421     Biso  1.000000 C
   C243       1.0     0.297780      0.154557      0.556616     Biso  1.000000 C
   C244       1.0     0.333644      0.174490      0.537128     Biso  1.000000 C
   C245       1.0     0.330228      0.208578      0.538984     Biso  1.000000 C
   C246       1.0     0.474766      0.218545      0.774580     Biso  1.000000 C
   C247       1.0     0.489153      0.239272      0.725949     Biso  1.000000 C
   C248       1.0     0.461714      0.248618      0.678369     Biso  1.000000 C
   C249       1.0     0.254375      0.203767      0.570385     Biso  1.000000 C
   C250       1.0     0.430523      0.209019      0.776643     Biso  1.000000 C
   C251       1.0     0.417397      0.239262      0.678360     Biso  1.000000 C
   C252       1.0     0.365455      0.408529      0.685295     Biso  1.000000 C
   C253       1.0     0.398740      0.390206      0.717473     Biso  1.000000 C
   C254       1.0     0.398385      0.356713      0.710191     Biso  1.000000 C
   C255       1.0     0.330413      0.393217      0.659493     Biso  1.000000 C
   C256       1.0     0.327665      0.357502      0.664096     Biso  1.000000 C
   C257       1.0     0.362403      0.339005      0.687544     Biso  1.000000 C
   C258       1.0     0.401840      0.219443      0.730146     Biso  1.000000 C
   C259       1.0     0.280168      0.386983      0.875657     Biso  1.000000 C
   C260       1.0     0.258564      0.169575      0.574340     Biso  1.000000 C
   C261       1.0     0.391038      0.284745      0.322667     Biso  1.000000 C
   C262       1.0     0.501103      0.326458      0.195551     Biso  1.000000 C
   C263       1.0     0.503253      0.351594      0.243038     Biso  1.000000 C
   C264       1.0     0.519117      0.343623      0.300075     Biso  1.000000 C
   C265       1.0     0.511221      0.292496      0.206437     Biso  1.000000 C
   C266       1.0     0.528408      0.285127      0.266333     Biso  1.000000 C
   C267       1.0     0.532722      0.310761      0.312803     Biso  1.000000 C
   C268       1.0     0.456521      0.353251      0.566049     Biso  1.000000 C
   C269       1.0     0.402355      0.254066      0.347304     Biso  1.000000 C
   C270       1.0     0.477955      0.323871      0.578356     Biso  1.000000 C
   C271       1.0     0.438074      0.359117      0.509290     Biso  1.000000 C
   C272       1.0     0.450097      0.337145      0.461780     Biso  1.000000 C
   C273       1.0     0.470560      0.307208      0.471482     Biso  1.000000 C
   C274       1.0     0.405304      0.263878      0.217171     Biso  1.000000 C
   C275       1.0     0.416621      0.232939      0.243284     Biso  1.000000 C
   C276       1.0     0.413204      0.227494      0.305669     Biso  1.000000 C
   C277       1.0     0.391738      0.288486      0.258232     Biso  1.000000 C
   C278       1.0     0.487038      0.301748      0.529916     Biso  1.000000 C
   C279       1.0     0.484708      0.407601      0.015976     Biso  1.000000 C
   C280       1.0     0.323654      0.377664      0.867810     Biso  1.000000 C
   C281       1.0     0.247689      0.365080      0.855369     Biso  1.000000 C
   C282       1.0     0.532070      0.348622      0.725949     Biso  1.000000 C
   C283       1.0     0.552811      0.321247      0.750720     Biso  1.000000 C
   C284       1.0     0.540408      0.310204      0.810575     Biso  1.000000 C
   C285       1.0     0.502266      0.366261      0.762569     Biso  1.000000 C
   C286       1.0     0.489879      0.355046      0.821988     Biso  1.000000 C
   C287       1.0     0.510032      0.325841      0.846389     Biso  1.000000 C
   C288       1.0     0.679273      0.298947      0.063374     Biso  1.000000 C
   C289       1.0     0.482477      0.239173      0.989249     Biso  1.000000 C
   C290       1.0     0.681565      0.320492      0.011897     Biso  1.000000 C
   C291       1.0     0.639041      0.288074      0.083395     Biso  1.000000 C
   C292       1.0     0.601238      0.301257      0.054460     Biso  1.000000 C
   C293       1.0     0.603139      0.323881      0.004727     Biso  1.000000 C
   C294       1.0     0.406563      0.432365      0.063753     Biso  1.000000 C
   C295       1.0     0.409989      0.420442      0.002255     Biso  1.000000 C
   C296       1.0     0.448956      0.409426      0.977160     Biso  1.000000 C
   C297       1.0     0.442999      0.430424      0.099373     Biso  1.000000 C
   C298       1.0     0.643538      0.331880      0.982226     Biso  1.000000 C
   C299       1.0     0.332916      0.348731      0.835614     Biso  1.000000 C
   C300       1.0     0.517507      0.225233      0.956511     Biso  1.000000 C
   C301       1.0     0.484152      0.237686      0.055925     Biso  1.000000 C
   C302       1.0     0.257503      0.333690      0.828369     Biso  1.000000 C
   C303       1.0     0.301219      0.324948      0.820489     Biso  1.000000 C
   C304       1.0     0.167458      0.214252      0.923339     Biso  1.000000 C
   C305       1.0     0.172354      0.247928      0.936497     Biso  1.000000 C
   C306       1.0     0.212870      0.262889      0.931514     Biso  1.000000 C
   C307       1.0     0.202525      0.194928      0.907234     Biso  1.000000 C
   C308       1.0     0.242601      0.209456      0.901506     Biso  1.000000 C
   C309       1.0     0.550852      0.207897      0.989680     Biso  1.000000 C
   C310       1.0     0.248910      0.243117      0.914317     Biso  1.000000 C
   C311       1.0     0.332136      0.288538      0.100750     Biso  1.000000 C
   C312       1.0     0.344603      0.268748      0.048991     Biso  1.000000 C
   C313       1.0     0.349182      0.339116      0.040252     Biso  1.000000 C
   C314       1.0     0.359975      0.318601      0.990466     Biso  1.000000 C
   C315       1.0     0.358520      0.282691      0.993085     Biso  1.000000 C
   C316       1.0     0.549168      0.204427      0.053061     Biso  1.000000 C
   C317       1.0     0.515212      0.218116      0.086754     Biso  1.000000 C
   C318       1.0     0.332574      0.323469      0.093419     Biso  1.000000 C
   C319       1.0     0.862877      0.579462      0.749795     Biso  1.000000 C
   C320       1.0     0.791534      0.937878      0.291812     Biso  1.000000 C
   C321       1.0     0.823843      0.919095      0.397419     Biso  1.000000 C
   C322       1.0     0.149909      0.650843      0.174278     Biso  1.000000 C
   C323       1.0     0.149417      0.622077      0.125565     Biso  1.000000 C
   C324       1.0     0.170618      0.703660      0.222297     Biso  1.000000 C
   C325       1.0     0.175626      0.682440      0.163011     Biso  1.000000 C
   C326       1.0     0.172951      0.676100      0.334840     Biso  1.000000 C
   C327       1.0     0.196968      0.694087      0.282656     Biso  1.000000 C
   C328       1.0     0.171440      0.722458      0.411845     Biso  1.000000 C
   C329       1.0     0.074350      0.632385      0.077013     Biso  1.000000 C
   C330       1.0     0.143342      0.699916      0.373925     Biso  1.000000 C
   C331       1.0     0.146272      0.747052      0.451809     Biso  1.000000 C
   C332       1.0     0.145493      0.832462      0.361489     Biso  1.000000 C
   C333       1.0     0.132716      0.796803      0.376585     Biso  1.000000 C
   C334       1.0     0.200934      0.875242      0.318924     Biso  1.000000 C
   C335       1.0     0.187537      0.839497      0.328950     Biso  1.000000 C
   C336       1.0     0.238376      0.925366      0.354433     Biso  1.000000 C
   C337       1.0     0.225574      0.891261      0.372838     Biso  1.000000 C
   C338       1.0     0.154709      0.783790      0.433562     Biso  1.000000 C
   C339       1.0     0.211908      0.981647      0.318063     Biso  1.000000 C
   C340       1.0     0.121412      0.627480      0.065290     Biso  1.000000 C
   C341       1.0     0.053526      0.642959      0.018804     Biso  1.000000 C
   C342       1.0     0.051219      0.555103      0.550259     Biso  1.000000 C
   C343       1.0     0.073462      0.554015      0.614055     Biso  1.000000 C
   C344       1.0     0.983085      0.558459      0.488050     Biso  1.000000 C
   C345       1.0     0.001693      0.558984      0.552466     Biso  1.000000 C
   C346       1.0     0.916852      0.549404      0.411081     Biso  1.000000 C
   C347       1.0     0.931664      0.559224      0.479731     Biso  1.000000 C
   C348       1.0     0.855121      0.537747      0.340900     Biso  1.000000 C
   C349       1.0     0.005624      0.655375      0.032682     Biso  1.000000 C
   C350       1.0     0.867460      0.542322      0.408976     Biso  1.000000 C
   C351       1.0     0.853782      0.572281      0.306946     Biso  1.000000 C
   C352       1.0     0.904650      0.619017      0.207992     Biso  1.000000 C
   C353       1.0     0.860186      0.600704      0.199696     Biso  1.000000 C
   C354       1.0     0.953093      0.662766      0.160675     Biso  1.000000 C
   C355       1.0     0.906021      0.653161      0.174664     Biso  1.000000 C
   C356       1.0     0.001770      0.684963      0.077940     Biso  1.000000 C
   C357       1.0     0.960229      0.690780      0.115132     Biso  1.000000 C
   C358       1.0     0.853779      0.567953      0.235095     Biso  1.000000 C
   C359       1.0     0.524288      0.391407      0.986191     Biso  1.000000 C
   C360       1.0     0.201784      0.951204      0.358417     Biso  1.000000 C
   C361       1.0     0.223813      0.976555      0.247309     Biso  1.000000 C
   C362       1.0     0.142393      0.875848      0.821202     Biso  1.000000 C
   C363       1.0     0.111962      0.860527      0.772673     Biso  1.000000 C
   C364       1.0     0.203612      0.838506      0.843511     Biso  1.000000 C
   C365       1.0     0.189550      0.871797      0.812504     Biso  1.000000 C
   C366       1.0     0.249894      0.789351      0.848133     Biso  1.000000 C
   C367       1.0     0.246324      0.824267      0.825847     Biso  1.000000 C
   C368       1.0     0.291376      0.742632      0.889745     Biso  1.000000 C
   C369       1.0     0.098383      0.908698      0.697801     Biso  1.000000 C
   C370       1.0     0.295099      0.777063      0.863905     Biso  1.000000 C
   C371       1.0     0.272511      0.714804      0.849901     Biso  1.000000 C
   C372       1.0     0.270721      0.620844      0.886511     Biso  1.000000 C
   C373       1.0     0.261597      0.651617      0.846144     Biso  1.000000 C
   C374       1.0     0.281427      0.561421      0.886007     Biso  1.000000 C
   C375       1.0     0.289046      0.592695      0.848254     Biso  1.000000 C
   C376       1.0     0.203030      0.555127      0.856762     Biso  1.000000 C
   C377       1.0     0.246638      0.537836      0.863156     Biso  1.000000 C
   C378       1.0     0.276218      0.682006      0.887571     Biso  1.000000 C
   C379       1.0     0.184277      0.962713      0.214691     Biso  1.000000 C
   C380       1.0     0.079006      0.884230      0.748421     Biso  1.000000 C
   C381       1.0     0.064977      0.933158      0.671716     Biso  1.000000 C
   C382       1.0     0.150631      0.935979      0.121095     Biso  1.000000 C
   C383       1.0     0.191577      0.950879      0.147849     Biso  1.000000 C
   C384       1.0     0.078930      0.946906      0.066809     Biso  1.000000 C
   C385       1.0     0.119047      0.960371      0.099008     Biso  1.000000 C
   C386       1.0     0.999384      0.942480      0.077450     Biso  1.000000 C
   C387       1.0     0.040816      0.947545      0.111204     Biso  1.000000 C
   C388       1.0     0.949756      0.993235      0.081897     Biso  1.000000 C
   C389       1.0     0.070934      0.967596      0.691167     Biso  1.000000 C
   C390       1.0     0.959161      0.957791      0.112280     Biso  1.000000 C
   C391       1.0     0.984156      0.021729      0.080542     Biso  1.000000 C
   C392       1.0     0.023651      0.030128      0.941878     Biso  1.000000 C
   C393       1.0     0.976288      0.030715      0.964020     Biso  1.000000 C
   C394       1.0     0.075597      0.018451      0.850937     Biso  1.000000 C
   C395       1.0     0.029925      0.010925      0.880547     Biso  1.000000 C
   C396       1.0     0.069202      0.974646      0.763975     Biso  1.000000 C
   C397       1.0     0.079492      0.010148      0.780904     Biso  1.000000 C
   C398       1.0     0.973591      0.045348      0.026711     Biso  1.000000 C
   C399       1.0     0.122626      0.550997      0.833338     Biso  1.000000 C
   C400       1.0     0.562753      0.417253      0.986964     Biso  1.000000 C
   C401       1.0     0.536487      0.358350      0.016274     Biso  1.000000 C
   C402       1.0     0.467773      0.801752      0.011292     Biso  1.000000 C
   C403       1.0     0.495887      0.770607      0.999500     Biso  1.000000 C
   C404       1.0     0.530846      0.842217      0.048303     Biso  1.000000 C
   C405       1.0     0.487913      0.824306      0.062841     Biso  1.000000 C
   C406       1.0     0.580535      0.835620      0.139819     Biso  1.000000 C
   C407       1.0     0.556007      0.859839      0.099075     Biso  1.000000 C
   C408       1.0     0.621870      0.826247      0.242192     Biso  1.000000 C
   C409       1.0     0.518625      0.713943      0.051455     Biso  1.000000 C
   C410       1.0     0.591621      0.850772      0.205410     Biso  1.000000 C
   C411       1.0     0.661310      0.840328      0.276771     Biso  1.000000 C
   C412       1.0     0.721439      0.756267      0.324064     Biso  1.000000 C
   C413       1.0     0.702609      0.783970      0.281495     Biso  1.000000 C
   C414       1.0     0.708062      0.712488      0.410299     Biso  1.000000 C
   C415       1.0     0.688925      0.740162      0.368244     Biso  1.000000 C
   C416       1.0     0.736099      0.696025      0.519136     Biso  1.000000 C
   C417       1.0     0.722644      0.725661      0.476224     Biso  1.000000 C
   C418       1.0     0.685556      0.813343      0.314649     Biso  1.000000 C
   C419       1.0     0.660565      0.673493      0.540325     Biso  1.000000 C
   C420       1.0     0.489051      0.745651      0.051511     Biso  1.000000 C
   C421       1.0     0.507440      0.688585      0.108557     Biso  1.000000 C
   C422       1.0     0.706122      0.580744      0.823011     Biso  1.000000 C
   C423       1.0     0.749157      0.586120      0.856873     Biso  1.000000 C
   C424       1.0     0.628779      0.569798      0.828410     Biso  1.000000 C
   C425       1.0     0.666225      0.581866      0.864956     Biso  1.000000 C
   C426       1.0     0.558116      0.540216      0.834998     Biso  1.000000 C
   C427       1.0     0.586514      0.565793      0.870679     Biso  1.000000 C
   C428       1.0     0.524701      0.509630      0.929538     Biso  1.000000 C
   C429       1.0     0.467367      0.664823      0.103242     Biso  1.000000 C
   C430       1.0     0.515931      0.528704      0.866543     Biso  1.000000 C
   C431       1.0     0.511230      0.525846      0.990226     Biso  1.000000 C
   C432       1.0     0.564920      0.550008      0.108938     Biso  1.000000 C
   C433       1.0     0.531191      0.521804      0.112314     Biso  1.000000 C
   C434       1.0     0.515321      0.598524      0.142538     Biso  1.000000 C
   C435       1.0     0.557934      0.578698      0.157870     Biso  1.000000 C
   C436       1.0     0.462727      0.644116      0.164439     Biso  1.000000 C
   C437       1.0     0.503263      0.624291      0.191080     Biso  1.000000 C
   C438       1.0     0.528379      0.505063      0.044368     Biso  1.000000 C
   C439       1.0     0.562133      0.334605      0.971335     Biso  1.000000 C
   C440       1.0     0.705524      0.665974      0.522078     Biso  1.000000 C
   C441       1.0     0.632355      0.640439      0.547936     Biso  1.000000 C
   C442       1.0     0.399680      0.237911      0.565332     Biso  1.000000 C
   C443       1.0     0.364471      0.231857      0.513278     Biso  1.000000 C
   C444       1.0     0.371125      0.284343      0.630540     Biso  1.000000 C
   C445       1.0     0.386196      0.247984      0.630095     Biso  1.000000 C
   C446       1.0     0.321257      0.288252      0.724885     Biso  1.000000 C
   C447       1.0     0.360428      0.302357      0.693688     Biso  1.000000 C
   C448       1.0     0.291152      0.262788      0.826384     Biso  1.000000 C
   C449       1.0     0.406973      0.251082      0.416832     Biso  1.000000 C
   C450       1.0     0.316735      0.290619      0.798023     Biso  1.000000 C
   C451       1.0     0.291734      0.258428      0.896023     Biso  1.000000 C
   C452       1.0     0.412862      0.242675      0.941929     Biso  1.000000 C
   C453       1.0     0.368849      0.262164      0.935826     Biso  1.000000 C
   C454       1.0     0.465728      0.282587      0.904152     Biso  1.000000 C
   C455       1.0     0.452181      0.262815      0.959838     Biso  1.000000 C
   C456       1.0     0.531479      0.305381      0.956576     Biso  1.000000 C
   C457       1.0     0.495286      0.311247      0.911476     Biso  1.000000 C
   C458       1.0     0.331468      0.240337      0.919536     Biso  1.000000 C
   C459       1.0     0.637552      0.615037      0.491515     Biso  1.000000 C
   C460       1.0     0.381508      0.221241      0.450264     Biso  1.000000 C
   C461       1.0     0.456128      0.248386      0.425345     Biso  1.000000 C
   C462       1.0     0.631767      0.561455      0.560188     Biso  1.000000 C
   C463       1.0     0.614404      0.582705      0.503456     Biso  1.000000 C
   C464       1.0     0.621445      0.511701      0.625020     Biso  1.000000 C
   C465       1.0     0.598975      0.534470      0.577121     Biso  1.000000 C
   C466       1.0     0.654397      0.474255      0.542949     Biso  1.000000 C
   C467       1.0     0.624385      0.476326      0.599056     Biso  1.000000 C
   C468       1.0     0.677832      0.444710      0.442348     Biso  1.000000 C
   C469       1.0     0.479703      0.280513      0.421565     Biso  1.000000 C
   C470       1.0     0.644813      0.444022      0.493851     Biso  1.000000 C
   C471       1.0     0.685147      0.415929      0.399399     Biso  1.000000 C
   C472       1.0     0.627089      0.353695      0.349682     Biso  1.000000 C
   C473       1.0     0.657158      0.378424      0.318688     Biso  1.000000 C
   C474       1.0     0.601289      0.295295      0.372125     Biso  1.000000 C
   C475       1.0     0.626731      0.317023      0.326993     Biso  1.000000 C
   C476       1.0     0.529421      0.275256      0.409305     Biso  1.000000 C
   C477       1.0     0.552373      0.303376      0.374383     Biso  1.000000 C
   C478       1.0     0.654301      0.412679      0.344787     Biso  1.000000 C
   C479       1.0     0.163230      0.532687      0.856577     Biso  1.000000 C
   C480       1.0     0.092189      0.505319      0.762620     Biso  1.000000 C
   C481       1.0     0.086871      0.526048      0.821535     Biso  1.000000 C
   C482       1.0     0.307684      0.164717      0.217606     Biso  1.000000 C
   C483       1.0     0.252476      0.214439      0.356325     Biso  1.000000 C
   C484       1.0     0.255215      0.186026      0.305752     Biso  1.000000 C
   C485       1.0     0.261188      0.275399      0.388466     Biso  1.000000 C
   C486       1.0     0.255500      0.250418      0.333489     Biso  1.000000 C
   C487       1.0     0.286758      0.323947      0.327678     Biso  1.000000 C
   C488       1.0     0.253860      0.312441      0.371663     Biso  1.000000 C
   C489       1.0     0.301312      0.186978      0.273653     Biso  1.000000 C
   C490       1.0     0.258063      0.363672      0.240031     Biso  1.000000 C
   C491       1.0     0.201500      0.409340      0.238838     Biso  1.000000 C
   C492       1.0     0.248098      0.399567      0.218679     Biso  1.000000 C
   C493       1.0     0.211602      0.443484      0.332707     Biso  1.000000 C
   C494       1.0     0.198754      0.443906      0.263710     Biso  1.000000 C
   C495       1.0     0.242330      0.502833      0.334307     Biso  1.000000 C
   C496       1.0     0.209170      0.477956      0.367452     Biso  1.000000 C
   C497       1.0     0.279091      0.560449      0.332110     Biso  1.000000 C
   C498       1.0     0.280711      0.359556      0.307769     Biso  1.000000 C
   C499       1.0     0.243630      0.539227      0.358926     Biso  1.000000 C
   C500       1.0     0.382323      0.135276      0.242585     Biso  1.000000 C
   C501       1.0     0.397784      0.072346      0.276369     Biso  1.000000 C
   C502       1.0     0.468885      0.972422      0.623729     Biso  1.000000 C
   C503       1.0     0.367162      0.005406      0.716978     Biso  1.000000 C
   C504       1.0     0.394688      0.993583      0.661311     Biso  1.000000 C
   C505       1.0     0.349208      0.031117      0.818639     Biso  1.000000 C
   C506       1.0     0.382985      0.032434      0.764993     Biso  1.000000 C
   C507       1.0     0.397938      0.031109      0.914692     Biso  1.000000 C
   C508       1.0     0.364267      0.049299      0.877290     Biso  1.000000 C
   C509       1.0     0.353720      0.157879      0.196883     Biso  1.000000 C
   C510       1.0     0.451669      0.031467      0.017663     Biso  1.000000 C
   C511       1.0     0.472414      0.993977      0.104492     Biso  1.000000 C
   C512       1.0     0.439465      0.001643      0.055643     Biso  1.000000 C
   C513       1.0     0.438653      0.989822      0.212216     Biso  1.000000 C
   C514       1.0     0.468623      0.009194      0.168716     Biso  1.000000 C
   C515       1.0     0.388759      0.039874      0.245745     Biso  1.000000 C
   C516       1.0     0.421686      0.011152      0.264686     Biso  1.000000 C
   C517       1.0     0.369936      0.099304      0.248054     Biso  1.000000 C
   C518       1.0     0.417369      0.050149      0.971890     Biso  1.000000 C
   C519       1.0     0.436492      0.973213      0.678073     Biso  1.000000 C
   C520       1.0     0.353046      0.575941      0.370006     Biso  1.000000 C
   C521       1.0     0.382170      0.606100      0.465754     Biso  1.000000 C
   C522       1.0     0.711606      0.812314      0.920072     Biso  1.000000 C
   C523       1.0     0.777235      0.768839      0.851534     Biso  1.000000 C
   C524       1.0     0.775133      0.772762      0.925203     Biso  1.000000 C
   C525       1.0     0.857166      0.787282      0.829627     Biso  1.000000 C
   C526       1.0     0.822182      0.758474      0.833069     Biso  1.000000 C
   C527       1.0     0.931863      0.792926      0.779248     Biso  1.000000 C
   C528       1.0     0.902659      0.774895      0.827267     Biso  1.000000 C
   C529       1.0     0.728342      0.778767      0.945546     Biso  1.000000 C
   C530       1.0     0.950028      0.808194      0.665059     Biso  1.000000 C
   C531       1.0     0.936970      0.849539      0.585921     Biso  1.000000 C
   C532       1.0     0.915625      0.833112      0.643489     Biso  1.000000 C
   C533       1.0     0.875459      0.881254      0.529087     Biso  1.000000 C
   C534       1.0     0.919591      0.881708      0.563991     Biso  1.000000 C
   C535       1.0     0.816892      0.916930      0.469478     Biso  1.000000 C
   C536       1.0     0.859554      0.916446      0.507745     Biso  1.000000 C
   C537       1.0     0.784659      0.932626      0.361863     Biso  1.000000 C
   C538       1.0     0.932121      0.782140      0.710307     Biso  1.000000 C
   C539       1.0     0.327013      0.548366      0.340905     Biso  1.000000 C
   C540       1.0     0.650476      0.824178      0.847148     Biso  1.000000 C
   C541       1.0     0.654573      0.806901      0.726454     Biso  1.000000 C
   C542       1.0     0.354097      0.578594      0.442075     Biso  1.000000 C
   C543       1.0     0.399993      0.668006      0.467378     Biso  1.000000 C
   C544       1.0     0.367130      0.641221      0.450787     Biso  1.000000 C
   C545       1.0     0.441750      0.717716      0.432493     Biso  1.000000 C
   C546       1.0     0.397331      0.701186      0.436208     Biso  1.000000 C
   C547       1.0     0.488399      0.769324      0.407463     Biso  1.000000 C
   C548       1.0     0.443290      0.753022      0.403605     Biso  1.000000 C
   C549       1.0     0.663435      0.809641      0.911407     Biso  1.000000 C
   C550       1.0     0.546544      0.790761      0.475081     Biso  1.000000 C
   C551       1.0     0.562785      0.774239      0.583524     Biso  1.000000 C
   C552       1.0     0.556857      0.802433      0.540432     Biso  1.000000 C
   C553       1.0     0.579806      0.755535      0.702617     Biso  1.000000 C
   C554       1.0     0.562351      0.782730      0.656513     Biso  1.000000 C
   C555       1.0     0.656254      0.775235      0.682085     Biso  1.000000 C
   C556       1.0     0.627236      0.745959      0.695261     Biso  1.000000 C
   C557       1.0     0.663141      0.799116      0.794872     Biso  1.000000 C
   C558       1.0     0.497919      0.784367      0.470228     Biso  1.000000 C
   C559       1.0     0.704738      0.170932      0.971030     Biso  1.000000 C
   C560       1.0     0.691971      0.204497      0.993242     Biso  1.000000 C
   C561       1.0     0.670018      0.117651      0.932314     Biso  1.000000 C
   C562       1.0     0.910923      0.116872      0.111994     Biso  1.000000 C
   C563       1.0     0.929990      0.150489      0.093946     Biso  1.000000 C
   C564       1.0     0.925033      0.114791      0.229598     Biso  1.000000 C
   C565       1.0     0.890010      0.112438      0.176012     Biso  1.000000 C
   C566       1.0     0.940507      0.107260      0.349918     Biso  1.000000 C
   C567       1.0     0.907772      0.117400      0.298965     Biso  1.000000 C
   C568       1.0     0.957081      0.099371      0.468164     Biso  1.000000 C
   C569       1.0     0.994530      0.170416      0.026898     Biso  1.000000 C
   C570       1.0     0.923521      0.108912      0.417748     Biso  1.000000 C
   C571       1.0     0.978518      0.129952      0.497627     Biso  1.000000 C
   C572       1.0     0.046863      0.123397      0.648121     Biso  1.000000 C
   C573       1.0     0.010807      0.136368      0.606495     Biso  1.000000 C
   C574       1.0     0.119977      0.141246      0.701035     Biso  1.000000 C
   C575       1.0     0.088818      0.143946      0.646506     Biso  1.000000 C
   C576       1.0     0.134950      0.196366      0.754843     Biso  1.000000 C
   C577       1.0     0.151152      0.170392      0.712324     Biso  1.000000 C
   C578       1.0     0.011376      0.116588      0.546266     Biso  1.000000 C
   C579       1.0     0.138647      0.254566      0.716039     Biso  1.000000 C
   C580       1.0     0.955994      0.145754      0.033322     Biso  1.000000 C
   C581       1.0     0.980589      0.204854      0.011391     Biso  1.000000 C
   C582       1.0     0.783889      0.464517      0.061172     Biso  1.000000 C
   C583       1.0     0.747281      0.441289      0.048660     Biso  1.000000 C
   C584       1.0     0.832632      0.482617      0.163686     Biso  1.000000 C
   C585       1.0     0.787459      0.470965      0.132870     Biso  1.000000 C
   C586       1.0     0.901528      0.459676      0.201788     Biso  1.000000 C
   C587       1.0     0.866741      0.455323      0.152883     Biso  1.000000 C
   C588       1.0     0.974479      0.431514      0.189167     Biso  1.000000 C
   C589       1.0     0.005704      0.231904      0.046429     Biso  1.000000 C
   C590       1.0     0.930249      0.430730      0.222557     Biso  1.000000 C
   C591       1.0     0.992766      0.396948      0.175651     Biso  1.000000 C
   C592       1.0     0.970810      0.314409      0.184049     Biso  1.000000 C
   C593       1.0     0.939571      0.345793      0.175633     Biso  1.000000 C
   C594       1.0     0.988020      0.255747      0.227086     Biso  1.000000 C
   C595       1.0     0.953617      0.283954      0.219933     Biso  1.000000 C
   C596       1.0     0.983836      0.230969      0.110339     Biso  1.000000 C
   C597       1.0     0.008612      0.243336      0.168038     Biso  1.000000 C
   C598       1.0     0.960657      0.373691      0.139861     Biso  1.000000 C
   C599       1.0     0.109383      0.225803      0.726468     Biso  1.000000 C
   C600       1.0     0.145659      0.311020      0.683857     Biso  1.000000 C
   C601       1.0     0.120370      0.280508      0.672915     Biso  1.000000 C
   C602       1.0     0.641317      0.238752      0.570963     Biso  1.000000 C
   C603       1.0     0.618204      0.190467      0.447035     Biso  1.000000 C
   C604       1.0     0.594469      0.194060      0.509503     Biso  1.000000 C
   C605       1.0     0.651486      0.134874      0.457061     Biso  1.000000 C
   C606       1.0     0.622298      0.156520      0.418576     Biso  1.000000 C
   C607       1.0     0.666228      0.106461      0.560053     Biso  1.000000 C
   C608       1.0     0.632618      0.111543      0.506385     Biso  1.000000 C
   C609       1.0     0.599029      0.231336      0.532849     Biso  1.000000 C
   C610       1.0     0.688871      0.073586      0.657369     Biso  1.000000 C
   C611       1.0     0.715974      0.031070      0.736979     Biso  1.000000 C
   C612       1.0     0.684039      0.037306      0.682580     Biso  1.000000 C
   C613       1.0     0.672220      0.065547      0.818824     Biso  1.000000 C
   C614       1.0     0.690264      0.029963      0.799401     Biso  1.000000 C
   C615       1.0     0.634104      0.103395      0.887871     Biso  1.000000 C
   C616       1.0     0.639837      0.066899      0.872863     Biso  1.000000 C
   C617       1.0     0.664036      0.153189      0.950719     Biso  1.000000 C
   C618       1.0     0.652528      0.085648      0.616507     Biso  1.000000 C
   C619       1.0     0.673217      0.232029      0.682288     Biso  1.000000 C
   C620       1.0     0.633669      0.229006      0.640001     Biso  1.000000 C
   C621       1.0     0.743973      0.207969      0.645530     Biso  1.000000 C
   C622       1.0     0.118922      0.355485      0.600152     Biso  1.000000 C
   C623       1.0     0.127142      0.347564      0.669024     Biso  1.000000 C
   C624       1.0     0.040136      0.379595      0.616493     Biso  1.000000 C
   C625       1.0     0.069739      0.357285      0.581336     Biso  1.000000 C
   C626       1.0     0.992190      0.389540      0.707730     Biso  1.000000 C
   C627       1.0     0.012319      0.363243      0.667469     Biso  1.000000 C
   C628       1.0     0.945256      0.396504      0.803593     Biso  1.000000 C
   C629       1.0     0.981078      0.377018      0.774390     Biso  1.000000 C
   C630       1.0     0.882979      0.357209      0.825782     Biso  1.000000 C
   C631       1.0     0.899907      0.385356      0.785397     Biso  1.000000 C
   C632       1.0     0.857492      0.315920      0.738256     Biso  1.000000 C
   C633       1.0     0.845671      0.335269      0.799337     Biso  1.000000 C
   C634       1.0     0.834987      0.276642      0.654057     Biso  1.000000 C
   C635       1.0     0.820734      0.304518      0.696654     Biso  1.000000 C
   C636       1.0     0.778341      0.231366      0.669944     Biso  1.000000 C
   C637       1.0     0.800044      0.256194      0.621638     Biso  1.000000 C
   C638       1.0     0.703655      0.202958      0.682626     Biso  1.000000 C
   C639       1.0     0.038704      0.648333      0.463237     Biso  1.000000 C
   C640       1.0     0.076830      0.652673      0.497779     Biso  1.000000 C
   C641       1.0     0.828452      0.961054      0.281324     Biso  1.000000 C
   C642       1.0     0.037167      0.661111      0.401509     Biso  1.000000 C
   C643       1.0     0.329017      0.066013      0.914035     Biso  1.000000 C
   C644       1.0     0.466201      0.147593      0.928206     Biso  1.000000 C
   C645       1.0     0.483356      0.119821      0.897143     Biso  1.000000 C
   C646       1.0     0.466214      0.088333      0.910153     Biso  1.000000 C
   C647       1.0     0.431711      0.143520      0.971733     Biso  1.000000 C
   C648       1.0     0.420437      0.110618      0.990924     Biso  1.000000 C
   C649       1.0     0.436940      0.084005      0.957701     Biso  1.000000 C
   C650       1.0     0.304006      0.047760      0.956012     Biso  1.000000 C
   C651       1.0     0.410082      0.917257      0.937029     Biso  1.000000 C
   C652       1.0     0.388395      0.957924      0.015273     Biso  1.000000 C
   C653       1.0     0.452887      0.929412      0.940540     Biso  1.000000 C
   C654       1.0     0.461557      0.957734      0.974204     Biso  1.000000 C
   C655       1.0     0.430283      0.972967      0.012769     Biso  1.000000 C
   C656       1.0     0.588342      0.021097      0.266412     Biso  1.000000 C
   C657       1.0     0.575920      0.989499      0.246439     Biso  1.000000 C
   C658       1.0     0.539737      0.985053      0.207899     Biso  1.000000 C
   C659       1.0     0.379805      0.930234      0.975999     Biso  1.000000 C
   C660       1.0     0.559379      0.046820      0.259592     Biso  1.000000 C
   C661       1.0     0.274026      0.062349      0.996453     Biso  1.000000 C
   C662       1.0     0.296106      0.116978      0.954365     Biso  1.000000 C
   C663       1.0     0.571078      0.927277      0.674705     Biso  1.000000 C
   C664       1.0     0.531358      0.933299      0.645141     Biso  1.000000 C
   C665       1.0     0.514346      0.964775      0.647579     Biso  1.000000 C
   C666       1.0     0.313702      0.940583      0.536037     Biso  1.000000 C
   C667       1.0     0.332931      0.969364      0.518844     Biso  1.000000 C
   C668       1.0     0.358712      0.985866      0.557388     Biso  1.000000 C
   C669       1.0     0.318748      0.926177      0.596159     Biso  1.000000 C
   C670       1.0     0.324344      0.101028      0.911268     Biso  1.000000 C
   C671       1.0     0.347914      0.943370      0.635009     Biso  1.000000 C
   C672       1.0     0.401693      0.126297      0.680697     Biso  1.000000 C
   C673       1.0     0.367967      0.106276      0.659308     Biso  1.000000 C
   C674       1.0     0.359879      0.073140      0.682903     Biso  1.000000 C
   C675       1.0     0.422102      0.119217      0.733458     Biso  1.000000 C
   C676       1.0     0.417177      0.086861      0.757623     Biso  1.000000 C
   C677       1.0     0.386203      0.065377      0.734953     Biso  1.000000 C
   C678       1.0     0.269561      0.097174      0.994635     Biso  1.000000 C
   C679       1.0     0.367213      0.973246      0.617534     Biso  1.000000 C
   C680       1.0     0.538094      0.990111      0.678698     Biso  1.000000 C
   C681       1.0     0.524697      0.044307      0.222307     Biso  1.000000 C
   C682       1.0     0.373886      0.933183      0.385533     Biso  1.000000 C
   C683       1.0     0.216156      0.166271      0.098847     Biso  1.000000 C
   C684       1.0     0.241818      0.158212      0.149395     Biso  1.000000 C
   C685       1.0     0.278062      0.175856      0.166497     Biso  1.000000 C
   C686       1.0     0.207514      0.092848      0.365148     Biso  1.000000 C
   C687       1.0     0.249901      0.100880      0.380648     Biso  1.000000 C
   C688       1.0     0.266541      0.131626      0.363034     Biso  1.000000 C
   C689       1.0     0.182267      0.113799      0.330824     Biso  1.000000 C
   C690       1.0     0.286378      0.207108      0.136568     Biso  1.000000 C
   C691       1.0     0.199815      0.143559      0.306691     Biso  1.000000 C
   C692       1.0     0.148001      0.288299      0.217365     Biso  1.000000 C
   C693       1.0     0.189733      0.284269      0.193340     Biso  1.000000 C
   C694       1.0     0.223506      0.271069      0.228432     Biso  1.000000 C
   C695       1.0     0.140721      0.277887      0.280745     Biso  1.000000 C
   C696       1.0     0.175486      0.264423      0.314843     Biso  1.000000 C
   C697       1.0     0.217009      0.261143      0.289198     Biso  1.000000 C
   C698       1.0     0.256107      0.374189      0.533770     Biso  1.000000 C
   C699       1.0     0.240278      0.153194      0.327789     Biso  1.000000 C
   C700       1.0     0.511905      0.012730      0.197878     Biso  1.000000 C
   C701       1.0     0.261124      0.217071      0.084941     Biso  1.000000 C
   C702       1.0     0.428889      0.142035      0.225041     Biso  1.000000 C
   C703       1.0     0.355277      0.941294      0.328904     Biso  1.000000 C
   C704       1.0     0.370757      0.964526      0.288578     Biso  1.000000 C
   C705       1.0     0.405192      0.955012      0.407593     Biso  1.000000 C
   C706       1.0     0.419810      0.980168      0.369826     Biso  1.000000 C
   C707       1.0     0.402665      0.986705      0.310166     Biso  1.000000 C
   C708       1.0     0.387778      0.070427      0.476770     Biso  1.000000 C
   C709       1.0     0.353525      0.059229      0.442033     Biso  1.000000 C
   C710       1.0     0.225657      0.195671      0.065803     Biso  1.000000 C
   C711       1.0     0.357447      0.057759      0.376558     Biso  1.000000 C
   C712       1.0     0.430842      0.079539      0.384756     Biso  1.000000 C
   C713       1.0     0.395800      0.069387      0.348900     Biso  1.000000 C
   C714       1.0     0.515372      0.158710      0.202019     Biso  1.000000 C
   C715       1.0     0.488089      0.150412      0.154763     Biso  1.000000 C
   C716       1.0     0.445380      0.142089      0.164633     Biso  1.000000 C
   C717       1.0     0.500160      0.152829      0.263807     Biso  1.000000 C
   C718       1.0     0.457463      0.146570      0.275092     Biso  1.000000 C
   C719       1.0     0.427867      0.078148      0.449269     Biso  1.000000 C
   C720       1.0     0.290791      0.335039      0.469538     Biso  1.000000 C
   C721       1.0     0.574926      0.983341      0.711935     Biso  1.000000 C
   C722       1.0     0.740851      0.172443      0.920003     Biso  1.000000 C
   C723       1.0     0.633899      0.332524      0.561215     Biso  1.000000 C
   C724       1.0     0.622784      0.299798      0.566489     Biso  1.000000 C
   C725       1.0     0.655918      0.274196      0.561178     Biso  1.000000 C
   C726       1.0     0.465392      0.151283      0.514102     Biso  1.000000 C
   C727       1.0     0.490799      0.156570      0.569533     Biso  1.000000 C
   C728       1.0     0.531153      0.172022      0.563662     Biso  1.000000 C
   C729       1.0     0.484177      0.165107      0.457801     Biso  1.000000 C
   C730       1.0     0.697892      0.282878      0.540941     Biso  1.000000 C
   C731       1.0     0.525909      0.179284      0.454826     Biso  1.000000 C
   C732       1.0     0.644049      0.144356      0.221571     Biso  1.000000 C
   C733       1.0     0.669402      0.166288      0.257774     Biso  1.000000 C
   C734       1.0     0.661508      0.171336      0.321163     Biso  1.000000 C
   C735       1.0     0.614532      0.125047      0.251524     Biso  1.000000 C
   C736       1.0     0.603938      0.131466      0.314321     Biso  1.000000 C
   C737       1.0     0.628460      0.152797      0.350778     Biso  1.000000 C
   C738       1.0     0.590998      0.017953      0.431027     Biso  1.000000 C
   C739       1.0     0.551133      0.180717      0.508087     Biso  1.000000 C
   C740       1.0     0.562002      0.041193      0.452841     Biso  1.000000 C
   C741       1.0     0.706304      0.316290      0.525701     Biso  1.000000 C
   C742       1.0     0.663224      0.242636      0.750651     Biso  1.000000 C
   C743       1.0     0.822655      0.234621      0.452281     Biso  1.000000 C
   C744       1.0     0.807832      0.250554      0.506884     Biso  1.000000 C
   C745       1.0     0.863504      0.197089      0.518946     Biso  1.000000 C
   C746       1.0     0.849896      0.214945      0.570334     Biso  1.000000 C
   C747       1.0     0.820197      0.240549      0.563954     Biso  1.000000 C
   C748       1.0     0.781831      0.112756      0.578814     Biso  1.000000 C
   C749       1.0     0.790552      0.121834      0.638576     Biso  1.000000 C
   C750       1.0     0.675333      0.340901      0.539553     Biso  1.000000 C
   C751       1.0     0.775708      0.151993      0.661195     Biso  1.000000 C
   C752       1.0     0.753382      0.167906      0.556333     Biso  1.000000 C
   C753       1.0     0.760067      0.175928      0.618057     Biso  1.000000 C
   C754       1.0     0.635909      0.262512      0.869670     Biso  1.000000 C
   C755       1.0     0.664100      0.283127      0.834281     Biso  1.000000 C
   C756       1.0     0.676353      0.272859      0.775195     Biso  1.000000 C
   C757       1.0     0.626999      0.230740      0.848596     Biso  1.000000 C
   C758       1.0     0.639882      0.221194      0.789056     Biso  1.000000 C
   C759       1.0     0.760850      0.135360      0.538498     Biso  1.000000 C
   C760       1.0     0.592775      0.951688      0.710432     Biso  1.000000 C
   C761       1.0     0.576201      0.072871      0.469936     Biso  1.000000 C
   C762       1.0     0.651073      0.056132      0.452341     Biso  1.000000 C
   C763       1.0     0.531115      0.037129      0.822733     Biso  1.000000 C
   C764       1.0     0.567681      0.055772      0.826523     Biso  1.000000 C
   C765       1.0     0.566870      0.991728      0.875009     Biso  1.000000 C
   C766       1.0     0.602094      0.012831      0.886340     Biso  1.000000 C
   C767       1.0     0.601238      0.044507      0.863193     Biso  1.000000 C
   C768       1.0     0.671834      0.055303      0.098515     Biso  1.000000 C
   C769       1.0     0.634318      0.069266      0.076601     Biso  1.000000 C
   C770       1.0     0.530661      0.005722      0.846870     Biso  1.000000 C
   C771       1.0     0.632301      0.090471      0.026144     Biso  1.000000 C
   C772       1.0     0.709471      0.080341      0.012587     Biso  1.000000 C
   C773       1.0     0.671364      0.096436      0.992035     Biso  1.000000 C
   C774       1.0     0.806586      0.174480      0.830765     Biso  1.000000 C
   C775       1.0     0.773448      0.197577      0.829817     Biso  1.000000 C
   C776       1.0     0.740077      0.196753      0.874366     Biso  1.000000 C
   C777       1.0     0.810654      0.152570      0.880242     Biso  1.000000 C
   C778       1.0     0.778063      0.153426      0.924972     Biso  1.000000 C
   C779       1.0     0.709474      0.061809      0.068438     Biso  1.000000 C
   C780       1.0     0.637028      0.025724      0.430823     Biso  1.000000 C
   C781       1.0     0.713884      0.011529      0.851270     Biso  1.000000 C
   C782       1.0     0.731755      0.961036      0.904101     Biso  1.000000 C
   C783       1.0     0.620620      0.079048      0.474952     Biso  1.000000 C
   C784       1.0     0.537273      0.126063      0.706865     Biso  1.000000 C
   C785       1.0     0.577624      0.142602      0.708364     Biso  1.000000 C
   C786       1.0     0.615884      0.128988      0.681562     Biso  1.000000 C
   C787       1.0     0.539120      0.093889      0.679304     Biso  1.000000 C
   C788       1.0     0.573996      0.082555      0.646760     Biso  1.000000 C
   C789       1.0     0.613366      0.099445      0.649180     Biso  1.000000 C
   C790       1.0     0.712047      0.977371      0.855096     Biso  1.000000 C
   C791       1.0     0.698129      0.971529      0.523929     Biso  1.000000 C
   C792       1.0     0.730870      0.010225      0.597311     Biso  1.000000 C
   C793       1.0     0.658782      0.975041      0.552813     Biso  1.000000 C
   C794       1.0     0.654400      0.995163      0.604853     Biso  1.000000 C
   C795       1.0     0.691047      0.013135      0.627074     Biso  1.000000 C
   C796       1.0     0.755101      0.977307      0.951519     Biso  1.000000 C
   C797       1.0     0.756504      0.011626      0.947425     Biso  1.000000 C
   C798       1.0     0.736022      0.028019      0.900210     Biso  1.000000 C
   C799       1.0     0.735830      0.986762      0.546109     Biso  1.000000 C
   C800       1.0     0.850698      0.207014      0.458166     Biso  1.000000 C
   C801       1.0     0.218431      0.371386      0.496993     Biso  1.000000 C
   C802       1.0     0.254416      0.332544      0.431771     Biso  1.000000 C
   C803       1.0     0.759128      0.861533      0.943377     Biso  1.000000 C
   C804       1.0     0.725460      0.840696      0.965455     Biso  1.000000 C
   C805       1.0     0.823246      0.682326      0.009745     Biso  1.000000 C
   C806       1.0     0.844818      0.713023      0.017879     Biso  1.000000 C
   C807       1.0     0.831386      0.740901      0.981703     Biso  1.000000 C
   C808       1.0     0.783784      0.682622      0.977350     Biso  1.000000 C
   C809       1.0     0.766798      0.710759      0.949363     Biso  1.000000 C
   C810       1.0     0.772991      0.887034      0.983841     Biso  1.000000 C
   C811       1.0     0.790559      0.740226      0.953657     Biso  1.000000 C
   C812       1.0     0.821178      0.687929      0.713712     Biso  1.000000 C
   C813       1.0     0.828059      0.703970      0.769449     Biso  1.000000 C
   C814       1.0     0.798823      0.740275      0.662246     Biso  1.000000 C
   C815       1.0     0.804167      0.755557      0.721207     Biso  1.000000 C
   C816       1.0     0.819996      0.738961      0.772752     Biso  1.000000 C
   C817       1.0     0.958308      0.788757      0.013404     Biso  1.000000 C
   C818       1.0     0.951261      0.756864      0.986964     Biso  1.000000 C
   C819       1.0     0.805678      0.705864      0.661233     Biso  1.000000 C
   C820       1.0     0.936378      0.753022      0.925893     Biso  1.000000 C
   C821       1.0     0.707368      0.842816      0.026560     Biso  1.000000 C
   C822       1.0     0.751001      0.889384      0.040832     Biso  1.000000 C
   C823       1.0     0.617162      0.698972      0.775843     Biso  1.000000 C
   C824       1.0     0.705022      0.687115      0.776046     Biso  1.000000 C
   C825       1.0     0.688864      0.711620      0.737224     Biso  1.000000 C
   C826       1.0     0.643643      0.718520      0.737817     Biso  1.000000 C
   C827       1.0     0.729266      0.892632      0.678994     Biso  1.000000 C
   C828       1.0     0.745923      0.861141      0.668233     Biso  1.000000 C
   C829       1.0     0.721065      0.833924      0.685605     Biso  1.000000 C
   C830       1.0     0.718873      0.868926      0.062084     Biso  1.000000 C
   C831       1.0     0.690165      0.895071      0.710136     Biso  1.000000 C
   C832       1.0     0.679245      0.836750      0.704843     Biso  1.000000 C
   C833       1.0     0.517302      0.858853      0.860051     Biso  1.000000 C
   C834       1.0     0.526142      0.824383      0.853972     Biso  1.000000 C
   C835       1.0     0.569637      0.813683      0.847814     Biso  1.000000 C
   C836       1.0     0.552651      0.881582      0.866117     Biso  1.000000 C
   C837       1.0     0.593756      0.869780      0.860079     Biso  1.000000 C
   C838       1.0     0.604849      0.836267      0.848693     Biso  1.000000 C
   C839       1.0     0.663831      0.867237      0.718325     Biso  1.000000 C
   C840       1.0     0.633682      0.674159      0.813513     Biso  1.000000 C
   C841       1.0     0.943572      0.817244      0.982323     Biso  1.000000 C
   C842       1.0     0.923975      0.781647      0.890490     Biso  1.000000 C
   C843       1.0     0.837991      0.931368      0.618779     Biso  1.000000 C
   C844       1.0     0.866060      0.997943      0.593444     Biso  1.000000 C
   C845       1.0     0.868630      0.972693      0.549324     Biso  1.000000 C
   C846       1.0     0.859397      0.940147      0.563315     Biso  1.000000 C
   C847       1.0     0.888617      0.831465      0.326595     Biso  1.000000 C
   C848       1.0     0.846064      0.829786      0.342807     Biso  1.000000 C
   C849       1.0     0.823776      0.858394      0.362632     Biso  1.000000 C
   C850       1.0     0.831910      0.956553      0.662560     Biso  1.000000 C
   C851       1.0     0.912959      0.862120      0.332943     Biso  1.000000 C
   C852       1.0     0.844639      0.888795      0.368035     Biso  1.000000 C
   C853       1.0     0.682434      0.976321      0.193065     Biso  1.000000 C
   C854       1.0     0.702168      0.947387      0.171688     Biso  1.000000 C
   C855       1.0     0.739253      0.933072      0.200141     Biso  1.000000 C
   C856       1.0     0.699321      0.992108      0.245491     Biso  1.000000 C
   C857       1.0     0.734421      0.978777      0.275688     Biso  1.000000 C
   C858       1.0     0.111300      0.669363      0.469548     Biso  1.000000 C
   C859       1.0     0.888233      0.891389      0.351264     Biso  1.000000 C
   C860       1.0     0.925835      0.812627      0.920174     Biso  1.000000 C
   C861       1.0     0.846039      0.989677      0.652039     Biso  1.000000 C
   C862       1.0     0.975904      0.924895      0.544138     Biso  1.000000 C
   C863       1.0     0.997740      0.689172      0.696820     Biso  1.000000 C
   C864       1.0     0.954368      0.690476      0.691037     Biso  1.000000 C
   C865       1.0     0.933112      0.720584      0.693045     Biso  1.000000 C
   C866       1.0     0.022737      0.717388      0.706726     Biso  1.000000 C
   C867       1.0     0.001276      0.748575      0.712972     Biso  1.000000 C
   C868       1.0     0.956752      0.749648      0.707272     Biso  1.000000 C
   C869       1.0     0.874178      0.904816      0.783537     Biso  1.000000 C
   C870       1.0     0.953307      0.897229      0.524294     Biso  1.000000 C
   C871       1.0     0.916996      0.906269      0.759700     Biso  1.000000 C
   C872       1.0     0.847854      0.880361      0.762884     Biso  1.000000 C
   C873       1.0     0.861765      0.858009      0.718491     Biso  1.000000 C
   C874       1.0     0.902343      0.858616      0.693600     Biso  1.000000 C
   C875       1.0     0.017400      0.924581      0.445971     Biso  1.000000 C
   C876       1.0     0.993565      0.898250      0.423592     Biso  1.000000 C
   C877       1.0     0.962670      0.883234      0.465139     Biso  1.000000 C
   C878       1.0     0.008072      0.937558      0.507153     Biso  1.000000 C
   C879       1.0     0.931690      0.883421      0.714836     Biso  1.000000 C
   C880       1.0     0.217290      0.351875      0.445165     Biso  1.000000 C
   C881       1.0     0.678085      0.668968      0.813526     Biso  1.000000 C
   C882       1.0     0.517609      0.828901      0.688081     Biso  1.000000 C
   C883       1.0     0.256858      0.472008      0.465014     Biso  1.000000 C
   C884       1.0     0.183168      0.455799      0.539238     Biso  1.000000 C
   C885       1.0     0.180084      0.463239      0.474304     Biso  1.000000 C
   C886       1.0     0.215967      0.472827      0.437814     Biso  1.000000 C
   C887       1.0     0.114263      0.581395      0.358625     Biso  1.000000 C
   C888       1.0     0.130753      0.566548      0.304619     Biso  1.000000 C
   C889       1.0     0.172539      0.554819      0.303628     Biso  1.000000 C
   C890       1.0     0.259073      0.467996      0.529037     Biso  1.000000 C
   C891       1.0     0.142016      0.583267      0.412705     Biso  1.000000 C
   C892       1.0     0.199119      0.556052      0.357343     Biso  1.000000 C
   C893       1.0     0.385337      0.499921      0.179150     Biso  1.000000 C
   C894       1.0     0.377098      0.533728      0.180126     Biso  1.000000 C
   C895       1.0     0.358543      0.548819      0.232791     Biso  1.000000 C
   C896       1.0     0.369693      0.481535      0.228548     Biso  1.000000 C
   C897       1.0     0.352439      0.496064      0.281504     Biso  1.000000 C
   C898       1.0     0.347447      0.530825      0.286033     Biso  1.000000 C
   C899       1.0     0.182507      0.570742      0.411780     Biso  1.000000 C
   C900       1.0     0.389370      0.492508      0.556898     Biso  1.000000 C
   C901       1.0     0.223423      0.459563      0.566637     Biso  1.000000 C
   C902       1.0     0.117689      0.444734      0.288250     Biso  1.000000 C
   C903       1.0     0.409935      0.404512      0.312896     Biso  1.000000 C
   C904       1.0     0.380632      0.408681      0.362627     Biso  1.000000 C
   C905       1.0     0.339598      0.394105      0.362530     Biso  1.000000 C
   C906       1.0     0.394857      0.385452      0.261693     Biso  1.000000 C
   C907       1.0     0.352327      0.373600      0.261855     Biso  1.000000 C
   C908       1.0     0.324191      0.377151      0.310480     Biso  1.000000 C
   C909       1.0     0.269600      0.429665      0.026274     Biso  1.000000 C
   C910       1.0     0.153460      0.457447      0.256849     Biso  1.000000 C
   C911       1.0     0.250549      0.399303      0.039530     Biso  1.000000 C
   C912       1.0     0.278069      0.451321      0.076081     Biso  1.000000 C
   C913       1.0     0.270645      0.441741      0.135709     Biso  1.000000 C
   C914       1.0     0.253742      0.409589      0.149724     Biso  1.000000 C
   C915       1.0     0.070963      0.484982      0.239684     Biso  1.000000 C
   C916       1.0     0.106241      0.498947      0.212665     Biso  1.000000 C
   C917       1.0     0.148497      0.484829      0.218938     Biso  1.000000 C
   C918       1.0     0.076031      0.457558      0.278339     Biso  1.000000 C
   C919       1.0     0.243662      0.388640      0.099859     Biso  1.000000 C
   C920       1.0     0.519741      0.794917      0.672605     Biso  1.000000 C
   C921       1.0     0.363308      0.517662      0.581845     Biso  1.000000 C
   C922       1.0     0.405311      0.495507      0.495730     Biso  1.000000 C
   C923       1.0     0.419695      0.865770      0.526261     Biso  1.000000 C
   C924       1.0     0.418027      0.834343      0.557573     Biso  1.000000 C
   C925       1.0     0.441983      0.808790      0.535065     Biso  1.000000 C
   C926       1.0     0.446527      0.869286      0.473087     Biso  1.000000 C
   C927       1.0     0.476031      0.845307      0.454234     Biso  1.000000 C
   C928       1.0     0.470656      0.813602      0.483770     Biso  1.000000 C
   C929       1.0     0.669347      0.865735      0.531304     Biso  1.000000 C
   C930       1.0     0.429222      0.754366      0.338407     Biso  1.000000 C
   C931       1.0     0.670865      0.834974      0.499537     Biso  1.000000 C
   C932       1.0     0.631413      0.874154      0.560891     Biso  1.000000 C
   C933       1.0     0.595082      0.855075      0.567280     Biso  1.000000 C
   C934       1.0     0.596981      0.824109      0.537249     Biso  1.000000 C
   C935       1.0     0.442996      0.820445      0.710918     Biso  1.000000 C
   C936       1.0     0.444162      0.787844      0.691708     Biso  1.000000 C
   C937       1.0     0.482698      0.775319      0.669921     Biso  1.000000 C
   C938       1.0     0.478380      0.841322      0.707350     Biso  1.000000 C
   C939       1.0     0.634375      0.813880      0.504821     Biso  1.000000 C
   C940       1.0     0.354695      0.546694      0.542634     Biso  1.000000 C
   C941       1.0     0.454095      0.741866      0.288139     Biso  1.000000 C
   C942       1.0     0.388839      0.768124      0.324268     Biso  1.000000 C
   C943       1.0     0.391578      0.522071      0.455774     Biso  1.000000 C
   C944       1.0     0.366226      0.548163      0.480730     Biso  1.000000 C
   C945       1.0     0.245586      0.654695      0.547885     Biso  1.000000 C
   C946       1.0     0.245925      0.648187      0.482997     Biso  1.000000 C
   C947       1.0     0.283885      0.644264      0.450949     Biso  1.000000 C
   C948       1.0     0.283792      0.657277      0.579601     Biso  1.000000 C
   C949       1.0     0.321410      0.652737      0.542829     Biso  1.000000 C
   C950       1.0     0.439736      0.742009      0.226161     Biso  1.000000 C
   C951       1.0     0.324479      0.645701      0.480776     Biso  1.000000 C
   C952       1.0     0.292076      0.743520      0.430370     Biso  1.000000 C
   C953       1.0     0.325901      0.722017      0.416203     Biso  1.000000 C
   C954       1.0     0.330554      0.765867      0.517835     Biso  1.000000 C
   C955       1.0     0.363346      0.742726      0.505913     Biso  1.000000 C
   C956       1.0     0.361314      0.721235      0.455612     Biso  1.000000 C
   C957       1.0     0.397832      0.753747      0.214987     Biso  1.000000 C
   C958       1.0     0.373285      0.768774      0.264006     Biso  1.000000 C
   C959       1.0     0.293910      0.766831      0.477857     Biso  1.000000 C
   C960       1.0     0.796385      0.331649      0.667081     Biso  1.000000 C
   C961       1.0     0.294099      0.358365      0.516461     Biso  1.000000 C
   C962       1.0     0.166684      0.051114      0.683769     Biso  1.000000 C
   C963       1.0     0.090767      0.768866      0.809020     Biso  1.000000 C
   C964       1.0     0.106264      0.796788      0.782204     Biso  1.000000 C
   C965       1.0     0.093132      0.828442      0.797588     Biso  1.000000 C
   C966       1.0     0.258686      0.960410      0.874408     Biso  1.000000 C
   C967       1.0     0.262112      0.949175      0.814341     Biso  1.000000 C
   C968       1.0     0.240080      0.921255      0.794469     Biso  1.000000 C
   C969       1.0     0.232253      0.942788      0.918046     Biso  1.000000 C
   C970       1.0     0.064056      0.830762      0.847199     Biso  1.000000 C
   C971       1.0     0.210061      0.913292      0.898184     Biso  1.000000 C
   C972       1.0     0.272827      0.828264      0.627500     Biso  1.000000 C
   C973       1.0     0.236452      0.811130      0.651332     Biso  1.000000 C
   C974       1.0     0.227632      0.809530      0.715188     Biso  1.000000 C
   C975       1.0     0.299778      0.843660      0.674011     Biso  1.000000 C
   C976       1.0     0.290056      0.843055      0.737918     Biso  1.000000 C
   C977       1.0     0.255535      0.823762      0.758243     Biso  1.000000 C
   C978       1.0     0.365251      0.841381      0.991017     Biso  1.000000 C
   C979       1.0     0.215082      0.902787      0.835877     Biso  1.000000 C
   C980       1.0     0.323481      0.829996      0.003424     Biso  1.000000 C
   C981       1.0     0.046550      0.802211      0.876781     Biso  1.000000 C
   C982       1.0     0.121268      0.890312      0.644156     Biso  1.000000 C
   C983       1.0     0.203267      0.038091      0.711010     Biso  1.000000 C
   C984       1.0     0.125173      0.042668      0.705824     Biso  1.000000 C
   C985       1.0     0.200828      0.017270      0.759802     Biso  1.000000 C
   C986       1.0     0.158867      0.007690      0.781293     Biso  1.000000 C
   C987       1.0     0.121450      0.022017      0.756846     Biso  1.000000 C
   C988       1.0     0.976227      0.025677      0.589562     Biso  1.000000 C
   C989       1.0     0.965575      0.005959      0.640871     Biso  1.000000 C
   C990       1.0     0.061519      0.770994      0.857572     Biso  1.000000 C
   C991       1.0     0.994677      0.987282      0.675862     Biso  1.000000 C
   C992       1.0     0.049781      0.007234      0.604288     Biso  1.000000 C
   C993       1.0     0.037780      0.988596      0.657217     Biso  1.000000 C
   C994       1.0     0.173274      0.858613      0.549523     Biso  1.000000 C
   C995       1.0     0.189320      0.885850      0.583214     Biso  1.000000 C
   C996       1.0     0.163811      0.902590      0.629092     Biso  1.000000 C
   C997       1.0     0.131907      0.847825      0.562149     Biso  1.000000 C
   C998       1.0     0.107120      0.860988      0.610377     Biso  1.000000 C
   C999       1.0     0.019928      0.026730      0.570667     Biso  1.000000 C
   C1000      1.0     0.020906      0.974239      0.894349     Biso  1.000000 C
   C1001      1.0     0.300267      0.809545      0.962188     Biso  1.000000 C
   C1002      1.0     0.358118      0.809912      0.890615     Biso  1.000000 C
   C1003      1.0     0.259990      0.527745      0.748592     Biso  1.000000 C
   C1004      1.0     0.298822      0.467579      0.774543     Biso  1.000000 C
   C1005      1.0     0.276685      0.483969      0.820526     Biso  1.000000 C
   C1006      1.0     0.257679      0.515057      0.808502     Biso  1.000000 C
   C1007      1.0     0.143521      0.484620      0.037704     Biso  1.000000 C
   C1008      1.0     0.160027      0.467126      0.985030     Biso  1.000000 C
   C1009      1.0     0.165473      0.483332      0.926739     Biso  1.000000 C
   C1010      1.0     0.277704      0.508666      0.699865     Biso  1.000000 C
   C1011      1.0     0.130165      0.517230      0.027028     Biso  1.000000 C
   C1012      1.0     0.155585      0.517511      0.920975     Biso  1.000000 C
   C1013      1.0     0.965853      0.573561      0.872659     Biso  1.000000 C
   C1014      1.0     0.992366      0.561448      0.915682     Biso  1.000000 C
   C1015      1.0     0.028666      0.542933      0.900396     Biso  1.000000 C
   C1016      1.0     0.978515      0.572244      0.809871     Biso  1.000000 C
   C1017      1.0     0.015780      0.556104      0.792212     Biso  1.000000 C
   C1018      1.0     0.043370      0.541582      0.837173     Biso  1.000000 C
   C1019      1.0     0.134160      0.532707      0.970188     Biso  1.000000 C
   C1020      1.0     0.381057      0.832437      0.930454     Biso  1.000000 C
   C1021      1.0     0.298567      0.477971      0.713189     Biso  1.000000 C
   C1022      1.0     0.367504      0.598009      0.869948     Biso  1.000000 C
   C1023      1.0     0.356459      0.712486      0.687396     Biso  1.000000 C
   C1024      1.0     0.367277      0.693305      0.740556     Biso  1.000000 C
   C1025      1.0     0.338642      0.693771      0.790898     Biso  1.000000 C
   C1026      1.0     0.317125      0.729666      0.684990     Biso  1.000000 C
   C1027      1.0     0.288934      0.728685      0.735221     Biso  1.000000 C
   C1028      1.0     0.299442      0.712029      0.790763     Biso  1.000000 C
   C1029      1.0     0.129175      0.654885      0.776342     Biso  1.000000 C
   C1030      1.0     0.334488      0.597750      0.827166     Biso  1.000000 C
   C1031      1.0     0.163897      0.657834      0.737174     Biso  1.000000 C
   C1032      1.0     0.137350      0.651849      0.839810     Biso  1.000000 C
   C1033      1.0     0.179135      0.652241      0.864424     Biso  1.000000 C
   C1034      1.0     0.214593      0.652961      0.824450     Biso  1.000000 C
   C1035      1.0     0.419280      0.601789      0.784606     Biso  1.000000 C
   C1036      1.0     0.385637      0.603380      0.741907     Biso  1.000000 C
   C1037      1.0     0.344730      0.601454      0.762611     Biso  1.000000 C
   C1038      1.0     0.411127      0.600149      0.849290     Biso  1.000000 C
   C1039      1.0     0.205574      0.656367      0.761028     Biso  1.000000 C
   C1040      1.0     0.981737      0.958938      0.880182     Biso  1.000000 C
   C1041      1.0     0.971232      0.926456      0.894441     Biso  1.000000 C
   C1042      1.0     0.053814      0.952063      0.912517     Biso  1.000000 C
   C1043      1.0     0.192273      0.822006      0.270294     Biso  1.000000 C
   C1044      1.0     0.342832      0.837332      0.418664     Biso  1.000000 C
   C1045      1.0     0.331838      0.845613      0.357001     Biso  1.000000 C
   C1046      1.0     0.295019      0.862909      0.342469     Biso  1.000000 C
   C1047      1.0     0.314086      0.846318      0.465208     Biso  1.000000 C
   C1048      1.0     0.274282      0.861373      0.452036     Biso  1.000000 C
   C1049      1.0     0.267519      0.873451      0.391386     Biso  1.000000 C
   C1050      1.0     0.159318      0.818566      0.227600     Biso  1.000000 C
   C1051      1.0     0.173015      0.979909      0.548343     Biso  1.000000 C
   C1052      1.0     0.154598      0.954524      0.451398     Biso  1.000000 C
   C1053      1.0     0.215651      0.986237      0.522694     Biso  1.000000 C
   C1054      1.0     0.223874      0.978182      0.460785     Biso  1.000000 C
   C1055      1.0     0.194472      0.963081      0.424230     Biso  1.000000 C
   C1056      1.0     0.273988      0.065616      0.151800     Biso  1.000000 C
   C1057      1.0     0.299950      0.037050      0.157440     Biso  1.000000 C
   C1058      1.0     0.283664      0.006957      0.188518     Biso  1.000000 C
   C1059      1.0     0.141702      0.963613      0.511229     Biso  1.000000 C
   C1060      1.0     0.232681      0.063587      0.175603     Biso  1.000000 C
   C1061      1.0     0.162868      0.797259      0.174334     Biso  1.000000 C
   C1062      1.0     0.236379      0.785807      0.203277     Biso  1.000000 C
   C1063      1.0     0.070413      0.674677      0.371343     Biso  1.000000 C
   C1064      1.0     0.813671      0.348578      0.613467     Biso  1.000000 C
   C1065      1.0     0.108488      0.680141      0.404660     Biso  1.000000 C
   C1066      1.0     0.167994      0.736667      0.646090     Biso  1.000000 C
   C1067      1.0     0.126666      0.741404      0.623651     Biso  1.000000 C
   C1068      1.0     0.119076      0.740544      0.559086     Biso  1.000000 C
   C1069      1.0     0.202529      0.733072      0.603742     Biso  1.000000 C
   C1070      1.0     0.230125      0.804063      0.259972     Biso  1.000000 C
   C1071      1.0     0.196492      0.738270      0.541103     Biso  1.000000 C
   C1072      1.0     0.996057      0.793479      0.392242     Biso  1.000000 C
   C1073      1.0     0.015790      0.770688      0.354442     Biso  1.000000 C
   C1074      1.0     0.059614      0.770429      0.349265     Biso  1.000000 C
   C1075      1.0     0.019107      0.814164      0.431748     Biso  1.000000 C
   C1076      1.0     0.063519      0.815794      0.427709     Biso  1.000000 C
   C1077      1.0     0.083963      0.794162      0.384895     Biso  1.000000 C
   C1078      1.0     0.201353      0.782293      0.160958     Biso  1.000000 C
   C1079      1.0     0.155806      0.742218      0.518335     Biso  1.000000 C
   C1080      1.0     0.217431      0.036434      0.210537     Biso  1.000000 C
   C1081      1.0     0.242515      0.007594      0.216001     Biso  1.000000 C
   C1082      1.0     0.292491      0.878356      0.134585     Biso  1.000000 C
   C1083      1.0     0.897229      0.927583      0.171053     Biso  1.000000 C
   C1084      1.0     0.920712      0.934621      0.114342     Biso  1.000000 C
   C1085      1.0     0.030618      0.063148      0.258325     Biso  1.000000 C
   C1086      1.0     0.049381      0.069310      0.199669     Biso  1.000000 C
   C1087      1.0     0.032798      0.055760      0.144106     Biso  1.000000 C
   C1088      1.0     0.994200      0.042423      0.259653     Biso  1.000000 C
   C1089      1.0     0.977620      0.029183      0.204573     Biso  1.000000 C
   C1090      1.0     0.863676      0.904424      0.174134     Biso  1.000000 C
   C1091      1.0     0.997796      0.034781      0.146609     Biso  1.000000 C
   C1092      1.0     0.932569      0.096024      0.853533     Biso  1.000000 C
   C1093      1.0     0.962680      0.077273      0.885970     Biso  1.000000 C
   C1094      1.0     0.872279      0.060911      0.888852     Biso  1.000000 C
   C1095      1.0     0.904139      0.042845      0.920831     Biso  1.000000 C
   C1096      1.0     0.946781      0.050670      0.921433     Biso  1.000000 C
   C1097      1.0     0.004770      0.905480      0.913225     Biso  1.000000 C
   C1098      1.0     0.043964      0.918781      0.924736     Biso  1.000000 C
   C1099      1.0     0.888217      0.088276      0.855938     Biso  1.000000 C
   C1100      1.0     0.904225      0.920278      0.059094     Biso  1.000000 C
   C1101      1.0     0.868620      0.898942      0.059655     Biso  1.000000 C
   C1102      1.0     0.848905      0.891828      0.117174     Biso  1.000000 C
   C1103      1.0     0.252134      0.869632      0.153031     Biso  1.000000 C
   C1104      1.0     0.217584      0.890528      0.151779     Biso  1.000000 C
   C1105      1.0     0.300072      0.909931      0.113860     Biso  1.000000 C
   C1106      1.0     0.266989      0.934386      0.120340     Biso  1.000000 C
   C1107      1.0     0.226942      0.924971      0.140503     Biso  1.000000 C
   C1108      1.0     0.163945      0.042327      0.989004     Biso  1.000000 C
   C1109      1.0     0.164374      0.011194      0.959741     Biso  1.000000 C
   C1110      1.0     0.153559      0.984148      0.001040     Biso  1.000000 C
   C1111      1.0     0.143697      0.046914      0.045440     Biso  1.000000 C
   C1112      1.0     0.128801      0.021455      0.081759     Biso  1.000000 C
   C1113      1.0     0.137107      0.989021      0.061421     Biso  1.000000 C
   C1114      1.0     0.063420      0.884825      0.270025     Biso  1.000000 C
   C1115      1.0     0.055821      0.870517      0.212466     Biso  1.000000 C
   C1116      1.0     0.045527      0.891256      0.162628     Biso  1.000000 C
   C1117      1.0     0.060263      0.919092      0.278922     Biso  1.000000 C
   C1118      1.0     0.055917      0.940406      0.225670     Biso  1.000000 C
   C1119      1.0     0.048470      0.926167      0.167320     Biso  1.000000 C
   C1120      1.0     0.733929      0.394280      0.874061     Biso  1.000000 C
   C1121      1.0     0.698525      0.398911      0.909232     Biso  1.000000 C
   C1122      1.0     0.319803      0.798643      0.908131     Biso  1.000000 C
   C1123      1.0     0.701293      0.413673      0.966917     Biso  1.000000 C
   C1124      1.0     0.274703      0.134640      0.772983     Biso  1.000000 C
   C1125      1.0     0.237331      0.119570      0.795547     Biso  1.000000 C
   C1126      1.0     0.197479      0.132124      0.779766     Biso  1.000000 C
   C1127      1.0     0.273722      0.163943      0.733930     Biso  1.000000 C
   C1128      1.0     0.233346      0.176059      0.717603     Biso  1.000000 C
   C1129      1.0     0.195255      0.159867      0.737419     Biso  1.000000 C
   C1130      1.0     0.988231      0.255153      0.809423     Biso  1.000000 C
   C1131      1.0     0.114624      0.141022      0.584024     Biso  1.000000 C
   C1132      1.0     0.990295      0.242470      0.746334     Biso  1.000000 C
   C1133      1.0     0.026125      0.253713      0.841823     Biso  1.000000 C
   C1134      1.0     0.066146      0.243681      0.816251     Biso  1.000000 C
   C1135      1.0     0.068026      0.231312      0.755902     Biso  1.000000 C
   C1136      1.0     0.107162      0.248335      0.479814     Biso  1.000000 C
   C1137      1.0     0.072589      0.248125      0.521949     Biso  1.000000 C
   C1138      1.0     0.077476      0.258384      0.583843     Biso  1.000000 C
   C1139      1.0     0.151204      0.268593      0.564833     Biso  1.000000 C
   C1140      1.0     0.029110      0.228261      0.722637     Biso  1.000000 C
   C1141      1.0     0.117181      0.269084      0.605732     Biso  1.000000 C
   C1142      1.0     0.122684      0.172636      0.554413     Biso  1.000000 C
   C1143      1.0     0.123534      0.110769      0.555353     Biso  1.000000 C
   C1144      1.0     0.894529      0.052623      0.418863     Biso  1.000000 C
   C1145      1.0     0.886322      0.086202      0.421542     Biso  1.000000 C
   C1146      1.0     0.037483      0.201929      0.370376     Biso  1.000000 C
   C1147      1.0     0.997240      0.206696      0.394509     Biso  1.000000 C
   C1148      1.0     0.976639      0.182275      0.429578     Biso  1.000000 C
   C1149      1.0     0.061768      0.173469      0.391043     Biso  1.000000 C
   C1150      1.0     0.042881      0.149081      0.431549     Biso  1.000000 C
   C1151      1.0     0.147787      0.171494      0.500500     Biso  1.000000 C
   C1152      1.0     0.000347      0.153766      0.451157     Biso  1.000000 C
   C1153      1.0     0.907692      0.113610      0.686059     Biso  1.000000 C
   C1154      1.0     0.947199      0.109368      0.655570     Biso  1.000000 C
   C1155      1.0     0.912445      0.172473      0.690352     Biso  1.000000 C
   C1156      1.0     0.953549      0.170330      0.664975     Biso  1.000000 C
   C1157      1.0     0.969529      0.139843      0.642055     Biso  1.000000 C
   C1158      1.0     0.161664      0.140208      0.476335     Biso  1.000000 C
   C1159      1.0     0.146196      0.109787      0.499523     Biso  1.000000 C
   C1160      1.0     0.890029      0.143986      0.699712     Biso  1.000000 C
   C1161      1.0     0.195319      0.424506      0.760977     Biso  1.000000 C
   C1162      1.0     0.150676      0.421485      0.769324     Biso  1.000000 C
   C1163      1.0     0.129402      0.395937      0.734573     Biso  1.000000 C
   C1164      1.0     0.808686      0.463520      0.753691     Biso  1.000000 C
   C1165      1.0     0.828781      0.460608      0.814752     Biso  1.000000 C
   C1166      1.0     0.857697      0.434644      0.827656     Biso  1.000000 C
   C1167      1.0     0.820628      0.441122      0.708595     Biso  1.000000 C
   C1168      1.0     0.851030      0.417248      0.718709     Biso  1.000000 C
   C1169      1.0     0.870247      0.413392      0.777097     Biso  1.000000 C
   C1170      1.0     0.799565      0.260773      0.927577     Biso  1.000000 C
   C1171      1.0     0.020168      0.374784      0.814396     Biso  1.000000 C
   C1172      1.0     0.774251      0.288387      0.910519     Biso  1.000000 C
   C1173      1.0     0.839532      0.259321      0.904592     Biso  1.000000 C
   C1174      1.0     0.856217      0.283919      0.865354     Biso  1.000000 C
   C1175      1.0     0.829548      0.310113      0.845783     Biso  1.000000 C
   C1176      1.0     0.753375      0.386993      0.615901     Biso  1.000000 C
   C1177      1.0     0.735245      0.369810      0.662061     Biso  1.000000 C
   C1178      1.0     0.758543      0.343241      0.690454     Biso  1.000000 C
   C1179      1.0     0.791431      0.376461      0.591061     Biso  1.000000 C
   C1180      1.0     0.788025      0.312303      0.868500     Biso  1.000000 C
   C1181      1.0     0.041440      0.344474      0.819226     Biso  1.000000 C
   C1182      1.0     0.078802      0.342713      0.854231     Biso  1.000000 C
   C1183      1.0     0.037882      0.403851      0.841240     Biso  1.000000 C
   C1184      1.0     0.217450      0.403937      0.719037     Biso  1.000000 C
   C1185      1.0     0.195348      0.380458      0.684227     Biso  1.000000 C
   C1186      1.0     0.153035      0.374017      0.699888     Biso  1.000000 C
   C1187      1.0     0.044651      0.383254      0.386602     Biso  1.000000 C
   C1188      1.0     0.034722      0.351327      0.411401     Biso  1.000000 C
   C1189      1.0     0.045390      0.341091      0.469955     Biso  1.000000 C
   C1190      1.0     0.069403      0.403673      0.426877     Biso  1.000000 C
   C1191      1.0     0.080250      0.392423      0.485398     Biso  1.000000 C
   C1192      1.0     0.066834      0.362089      0.510669     Biso  1.000000 C
   C1193      1.0     0.934474      0.294732      0.563977     Biso  1.000000 C
   C1194      1.0     0.959874      0.283475      0.613611     Biso  1.000000 C
   C1195      1.0     0.983351      0.305270      0.649814     Biso  1.000000 C
   C1196      1.0     0.930865      0.328751      0.554927     Biso  1.000000 C
   C1197      1.0     0.953086      0.351507      0.590214     Biso  1.000000 C
   C1198      1.0     0.980180      0.338445      0.636971     Biso  1.000000 C
   C1199      1.0     0.096159      0.371006      0.884101     Biso  1.000000 C
   C1200      1.0     0.074289      0.401264      0.879159     Biso  1.000000 C
   C1201      1.0     0.858652      0.031174      0.412071     Biso  1.000000 C
   C1202      1.0     0.842974      0.097494      0.425280     Biso  1.000000 C
   C1203      1.0     0.146189      0.257893      0.502781     Biso  1.000000 C
   C1204      1.0     0.815716      0.041464      0.410165     Biso  1.000000 C
   C1205      1.0     0.940105      0.435107      0.292802     Biso  1.000000 C
   C1206      1.0     0.114745      0.401878      0.081528     Biso  1.000000 C
   C1207      1.0     0.112157      0.385277      0.137572     Biso  1.000000 C
   C1208      1.0     0.073695      0.384635      0.169013     Biso  1.000000 C
   C1209      1.0     0.078224      0.414262      0.048793     Biso  1.000000 C
   C1210      1.0     0.038781      0.415036      0.083100     Biso  1.000000 C
   C1211      1.0     0.035195      0.399481      0.142579     Biso  1.000000 C
   C1212      1.0     0.956368      0.465437      0.315352     Biso  1.000000 C
   C1213      1.0     0.819325      0.320231      0.088866     Biso  1.000000 C
   C1214      1.0     0.895964      0.317410      0.090823     Biso  1.000000 C
   C1215      1.0     0.818868      0.338539      0.142426     Biso  1.000000 C
   C1216      1.0     0.858074      0.346245      0.171233     Biso  1.000000 C
   C1217      1.0     0.897002      0.334630      0.146853     Biso  1.000000 C
   C1218      1.0     0.890822      0.310956      0.395943     Biso  1.000000 C
   C1219      1.0     0.935241      0.308628      0.392233     Biso  1.000000 C
   C1220      1.0     0.955505      0.299477      0.337417     Biso  1.000000 C
   C1221      1.0     0.857339      0.310254      0.062111     Biso  1.000000 C
   C1222      1.0     0.866901      0.300535      0.344949     Biso  1.000000 C
   C1223      1.0     0.968263      0.469824      0.377192     Biso  1.000000 C
   C1224      1.0     0.939159      0.414210      0.397090     Biso  1.000000 C
   C1225      1.0     0.774295      0.402529      0.893534     Biso  1.000000 C
   C1226      1.0     0.807577      0.074721      0.416883     Biso  1.000000 C
   C1227      1.0     0.743638      0.423598      0.987399     Biso  1.000000 C
   C1228      1.0     0.686506      0.532719      0.208829     Biso  1.000000 C
   C1229      1.0     0.688404      0.498779      0.220308     Biso  1.000000 C
   C1230      1.0     0.717620      0.479056      0.189600     Biso  1.000000 C
   C1231      1.0     0.719250      0.547093      0.175724     Biso  1.000000 C
   C1232      1.0     0.934141      0.408484      0.332864     Biso  1.000000 C
   C1233      1.0     0.751950      0.527008      0.149349     Biso  1.000000 C
   C1234      1.0     0.930364      0.450670      0.973375     Biso  1.000000 C
   C1235      1.0     0.927983      0.479887      0.007005     Biso  1.000000 C
   C1236      1.0     0.906277      0.482740      0.061746     Biso  1.000000 C
   C1237      1.0     0.905484      0.422738      0.992520     Biso  1.000000 C
   C1238      1.0     0.883708      0.424232      0.052682     Biso  1.000000 C
   C1239      1.0     0.887249      0.453814      0.087207     Biso  1.000000 C
   C1240      1.0     0.957835      0.443699      0.420751     Biso  1.000000 C
   C1241      1.0     0.750892      0.493445      0.155753     Biso  1.000000 C
   C1242      1.0     0.887169      0.292560      0.287805     Biso  1.000000 C
   C1243      1.0     0.779930      0.416654      0.951408     Biso  1.000000 C
   C1244      1.0     0.100671      0.168096      0.207585     Biso  1.000000 C
   C1245      1.0     0.866677      0.177030      0.040124     Biso  1.000000 C
   C1246      1.0     0.859049      0.224777      0.128759     Biso  1.000000 C
   C1247      1.0     0.888965      0.198960      0.138151     Biso  1.000000 C
   C1248      1.0     0.894078      0.175962      0.089717     Biso  1.000000 C
   C1249      1.0     0.798082      0.034192      0.175730     Biso  1.000000 C
   C1250      1.0     0.842005      0.028126      0.162435     Biso  1.000000 C
   C1251      1.0     0.872503      0.052818      0.162678     Biso  1.000000 C
   C1252      1.0     0.831830      0.198521      0.038136     Biso  1.000000 C
   C1253      1.0     0.783403      0.066317      0.186070     Biso  1.000000 C
   C1254      1.0     0.860135      0.084271      0.179449     Biso  1.000000 C
   C1255      1.0     0.847394      0.215739      0.306090     Biso  1.000000 C
   C1256      1.0     0.891544      0.211998      0.311036     Biso  1.000000 C
   C1257      1.0     0.910649      0.180389      0.313724     Biso  1.000000 C
   C1258      1.0     0.821568      0.186223      0.303207     Biso  1.000000 C
   C1259      1.0     0.840056      0.154996      0.306303     Biso  1.000000 C
   C1260      1.0     0.931898      0.293110      0.282036     Biso  1.000000 C
   C1261      1.0     0.815390      0.091088      0.186747     Biso  1.000000 C
   C1262      1.0     0.831082      0.224188      0.079919     Biso  1.000000 C
   C1263      1.0     0.885325      0.150649      0.312132     Biso  1.000000 C
   C1264      1.0     0.025221      0.141756      0.928669     Biso  1.000000 C
   C1265      1.0     0.030296      0.155275      0.991271     Biso  1.000000 C
   C1266      1.0     0.057291      0.163571      0.223061     Biso  1.000000 C
   C1267      1.0     0.029644      0.189286      0.213923     Biso  1.000000 C
   C1268      1.0     0.113295      0.196647      0.173707     Biso  1.000000 C
   C1269      1.0     0.085178      0.222022      0.165139     Biso  1.000000 C
   C1270      1.0     0.007701      0.330023      0.966223     Biso  1.000000 C
   C1271      1.0     0.040401      0.318843      0.002709     Biso  1.000000 C
   C1272      1.0     0.043335      0.218511      0.185657     Biso  1.000000 C
   C1273      1.0     0.971491      0.310273      0.959935     Biso  1.000000 C
   C1274      1.0     0.971443      0.277988      0.986672     Biso  1.000000 C
   C1275      1.0     0.006196      0.265646      0.019977     Biso  1.000000 C
   C1276      1.0     0.098846      0.127012      0.920392     Biso  1.000000 C
   C1277      1.0     0.104423      0.136704      0.984905     Biso  1.000000 C
   C1278      1.0     0.072199      0.151329      0.017324     Biso  1.000000 C
   C1279      1.0     0.059343      0.130003      0.893932     Biso  1.000000 C
   C1280      1.0     0.041507      0.287411      0.029753     Biso  1.000000 C
   H1         1.0     0.386986      0.603816      0.519335     Biso  1.000000 H
   H2         1.0     0.344526      0.598396      0.344801     Biso  1.000000 H
   H3         1.0     0.386321      0.570288      0.352069     Biso  1.000000 H
   H4         1.0     0.318505      0.581965      0.456251     Biso  1.000000 H
   H5         1.0     0.411645      0.601619      0.442339     Biso  1.000000 H
   H6         1.0     0.361592      0.645479      0.402226     Biso  1.000000 H
   H7         1.0     0.513876      0.751170      0.398812     Biso  1.000000 H
   H8         1.0     0.403307      0.670628      0.516263     Biso  1.000000 H
   H9         1.0     0.390252      0.697182      0.386121     Biso  1.000000 H
   H10        1.0     0.467134      0.704799      0.406131     Biso  1.000000 H
   H11        1.0     0.451880      0.721795      0.481526     Biso  1.000000 H
   H12        1.0     0.421977      0.767327      0.433923     Biso  1.000000 H
   H13        1.0     0.490291      0.788976      0.373740     Biso  1.000000 H
   H14        1.0     0.324840      0.526174      0.372278     Biso  1.000000 H
   H15        1.0     0.491700      0.765495      0.507329     Biso  1.000000 H
   H16        1.0     0.425719      0.653718      0.447224     Biso  1.000000 H
   H17        1.0     0.274834      0.562710      0.282388     Biso  1.000000 H
   H18        1.0     0.219115      0.460946      0.238292     Biso  1.000000 H
   H19        1.0     0.249916      0.538825      0.407685     Biso  1.000000 H
   H20        1.0     0.238913      0.270354      0.422953     Biso  1.000000 H
   H21        1.0     0.292271      0.271690      0.408564     Biso  1.000000 H
   H22        1.0     0.559158      0.808129      0.439850     Biso  1.000000 H
   H23        1.0     0.222324      0.316120      0.352171     Biso  1.000000 H
   H24        1.0     0.288481      0.310305      0.283910     Biso  1.000000 H
   H25        1.0     0.317815      0.320939      0.347535     Biso  1.000000 H
   H26        1.0     0.257494      0.372675      0.338943     Biso  1.000000 H
   H27        1.0     0.228837      0.348881      0.243737     Biso  1.000000 H
   H28        1.0     0.280382      0.357788      0.201459     Biso  1.000000 H
   H29        1.0     0.267526      0.416765      0.244977     Biso  1.000000 H
   H30        1.0     0.185409      0.389575      0.265385     Biso  1.000000 H
   H31        1.0     0.180110      0.410171      0.197443     Biso  1.000000 H
   H32        1.0     0.243665      0.433647      0.340151     Biso  1.000000 H
   H33        1.0     0.190861      0.426442      0.357380     Biso  1.000000 H
   H34        1.0     0.175524      0.485406      0.364329     Biso  1.000000 H
   H35        1.0     0.236174      0.502957      0.283581     Biso  1.000000 H
   H36        1.0     0.272396      0.491951      0.337417     Biso  1.000000 H
   H37        1.0     0.275438      0.585287      0.351056     Biso  1.000000 H
   H38        1.0     0.566115      0.768873      0.467336     Biso  1.000000 H
   H39        1.0     0.724351      0.780039      0.995750     Biso  1.000000 H
   H40        1.0     0.593641      0.763039      0.574303     Biso  1.000000 H
   H41        1.0     0.852804      0.803020      0.791203     Biso  1.000000 H
   H42        1.0     0.901870      0.749251      0.823996     Biso  1.000000 H
   H43        1.0     0.962223      0.785381      0.795871     Biso  1.000000 H
   H44        1.0     0.931811      0.820218      0.785424     Biso  1.000000 H
   H45        1.0     0.901326      0.776103      0.694234     Biso  1.000000 H
   H46        1.0     0.965876      0.794340      0.627856     Biso  1.000000 H
   H47        1.0     0.979145      0.821140      0.685305     Biso  1.000000 H
   H48        1.0     0.853712      0.802635      0.869754     Biso  1.000000 H
   H49        1.0     0.890470      0.818201      0.620671     Biso  1.000000 H
   H50        1.0     0.971085      0.855953      0.592486     Biso  1.000000 H
   H51        1.0     0.918728      0.897778      0.603488     Biso  1.000000 H
   H52        1.0     0.852600      0.867792      0.556486     Biso  1.000000 H
   H53        1.0     0.879269      0.866875      0.486277     Biso  1.000000 H
   H54        1.0     0.879675      0.925652      0.474313     Biso  1.000000 H
   H55        1.0     0.795800      0.936361      0.484279     Biso  1.000000 H
   H56        1.0     0.283345      0.252727      0.305012     Biso  1.000000 H
   H57        1.0     0.938625      0.832812      0.547529     Biso  1.000000 H
   H58        1.0     0.530661      0.820551      0.558600     Biso  1.000000 H
   H59        1.0     0.836157      0.741076      0.864914     Biso  1.000000 H
   H60        1.0     0.768562      0.789866      0.825292     Biso  1.000000 H
   H61        1.0     0.537072      0.757029      0.580836     Biso  1.000000 H
   H62        1.0     0.584849      0.801301      0.653178     Biso  1.000000 H
   H63        1.0     0.558513      0.733489      0.698379     Biso  1.000000 H
   H64        1.0     0.576777      0.763909      0.749328     Biso  1.000000 H
   H65        1.0     0.625699      0.729826      0.658068     Biso  1.000000 H
   H66        1.0     0.647091      0.785413      0.634236     Biso  1.000000 H
   H67        1.0     0.688807      0.767830      0.674141     Biso  1.000000 H
   H68        1.0     0.753855      0.749769      0.832167     Biso  1.000000 H
   H69        1.0     0.623017      0.817767      0.726185     Biso  1.000000 H
   H70        1.0     0.644679      0.776634      0.803547     Biso  1.000000 H
   H71        1.0     0.671552      0.846646      0.842063     Biso  1.000000 H
   H72        1.0     0.652390      0.783220      0.917653     Biso  1.000000 H
   H73        1.0     0.645950      0.821833      0.949530     Biso  1.000000 H
   H74        1.0     0.727623      0.815646      0.876323     Biso  1.000000 H
   H75        1.0     0.707058      0.757670      0.933272     Biso  1.000000 H
   H76        1.0     0.794640      0.794071      0.937283     Biso  1.000000 H
   H77        1.0     0.697653      0.793469      0.800294     Biso  1.000000 H
   H78        1.0     0.223960      0.209076      0.383803     Biso  1.000000 H
   H79        1.0     0.295569      0.128028      0.556162     Biso  1.000000 H
   H80        1.0     0.232438      0.194408      0.268485     Biso  1.000000 H
   H81        1.0     0.668037      0.119725      0.421098     Biso  1.000000 H
   H82        1.0     0.603670      0.121402      0.525377     Biso  1.000000 H
   H83        1.0     0.678526      0.128406      0.574201     Biso  1.000000 H
   H84        1.0     0.693415      0.093213      0.537596     Biso  1.000000 H
   H85        1.0     0.641227      0.063066      0.592560     Biso  1.000000 H
   H86        1.0     0.693604      0.090846      0.693346     Biso  1.000000 H
   H87        1.0     0.718662      0.073409      0.628134     Biso  1.000000 H
   H88        1.0     0.674873      0.152861      0.472120     Biso  1.000000 H
   H89        1.0     0.652697      0.034498      0.698287     Biso  1.000000 H
   H90        1.0     0.734731      0.008356      0.731640     Biso  1.000000 H
   H91        1.0     0.663755      0.014844      0.791999     Biso  1.000000 H
   H92        1.0     0.658555      0.074607      0.776088     Biso  1.000000 H
   H93        1.0     0.700954      0.080385      0.829673     Biso  1.000000 H
   H94        1.0     0.657820      0.055402      0.913313     Biso  1.000000 H
   H95        1.0     0.602238      0.106276      0.909339     Biso  1.000000 H
   H96        1.0     0.631525      0.118169      0.847828     Biso  1.000000 H
   H97        1.0     0.742787      0.048889      0.741217     Biso  1.000000 H
   H98        1.0     0.700078      0.116650      0.905253     Biso  1.000000 H
   H99        1.0     0.591893      0.142013      0.425442     Biso  1.000000 H
   H100       1.0     0.646286      0.203984      0.447210     Biso  1.000000 H
   H101       1.0     0.852865      0.258615      0.678328     Biso  1.000000 H
   H102       1.0     0.796382      0.896957      0.485694     Biso  1.000000 H
   H103       1.0     0.860269      0.287638      0.622989     Biso  1.000000 H
   H104       1.0     0.776849      0.275187      0.603418     Biso  1.000000 H
   H105       1.0     0.764180      0.248909      0.707466     Biso  1.000000 H
   H106       1.0     0.802166      0.218942      0.698111     Biso  1.000000 H
   H107       1.0     0.732676      0.220950      0.605181     Biso  1.000000 H
   H108       1.0     0.602155      0.204001      0.411252     Biso  1.000000 H
   H109       1.0     0.713079      0.197190      0.731043     Biso  1.000000 H
   H110       1.0     0.692648      0.252633      0.668006     Biso  1.000000 H
   H111       1.0     0.608716      0.244066      0.655074     Biso  1.000000 H
   H112       1.0     0.619610      0.204810      0.647538     Biso  1.000000 H
   H113       1.0     0.666794      0.221862      0.557967     Biso  1.000000 H
   H114       1.0     0.604008      0.248384      0.493597     Biso  1.000000 H
   H115       1.0     0.571526      0.241265      0.551499     Biso  1.000000 H
   H116       1.0     0.606588      0.177472      0.543430     Biso  1.000000 H
   H117       1.0     0.686717      0.180542      0.666696     Biso  1.000000 H
   H118       1.0     0.639258      0.154336      0.989097     Biso  1.000000 H
   H119       1.0     0.651754      0.165894      0.909639     Biso  1.000000 H
   H120       1.0     0.721148      0.155825      0.007681     Biso  1.000000 H
   H121       1.0     0.474286      0.967650      0.110392     Biso  1.000000 H
   H122       1.0     0.460042      0.033462      0.161168     Biso  1.000000 H
   H123       1.0     0.456227      0.967544      0.228987     Biso  1.000000 H
   H124       1.0     0.411734      0.980754      0.185540     Biso  1.000000 H
   H125       1.0     0.449698      0.022599      0.288796     Biso  1.000000 H
   H126       1.0     0.359166      0.027418      0.261087     Biso  1.000000 H
   H127       1.0     0.384886      0.042594      0.196046     Biso  1.000000 H
   H128       1.0     0.501486      0.003358      0.082171     Biso  1.000000 H
   H129       1.0     0.430980      0.079692      0.268934     Biso  1.000000 H
   H130       1.0     0.364669      0.092868      0.198813     Biso  1.000000 H
   H131       1.0     0.376657      0.143197      0.289573     Biso  1.000000 H
   H132       1.0     0.352474      0.148365      0.148302     Biso  1.000000 H
   H133       1.0     0.371051      0.181799      0.190914     Biso  1.000000 H
   H134       1.0     0.295019      0.139882      0.227669     Biso  1.000000 H
   H135       1.0     0.313101      0.212772      0.256155     Biso  1.000000 H
   H136       1.0     0.323986      0.179188      0.309023     Biso  1.000000 H
   H137       1.0     0.338582      0.097834      0.268267     Biso  1.000000 H
   H138       1.0     0.410507      0.007655      0.079643     Biso  1.000000 H
   H139       1.0     0.480384      0.025837      0.992557     Biso  1.000000 H
   H140       1.0     0.460167      0.048320      0.053670     Biso  1.000000 H
   H141       1.0     0.675464      0.219214      0.959847     Biso  1.000000 H
   H142       1.0     0.722596      0.217537      0.003767     Biso  1.000000 H
   H143       1.0     0.460624      0.954955      0.586323     Biso  1.000000 H
   H144       1.0     0.831021      0.968291      0.235215     Biso  1.000000 H
   H145       1.0     0.473804      0.994895      0.602488     Biso  1.000000 H
   H146       1.0     0.448106      0.986234      0.715923     Biso  1.000000 H
   H147       1.0     0.427065      0.949727      0.698130     Biso  1.000000 H
   H148       1.0     0.406621      0.014577      0.634495     Biso  1.000000 H
   H149       1.0     0.361173      0.982483      0.742439     Biso  1.000000 H
   H150       1.0     0.335146      0.011865      0.703284     Biso  1.000000 H
   H151       1.0     0.411501      0.023758      0.778059     Biso  1.000000 H
   H152       1.0     0.344513      0.005372      0.834799     Biso  1.000000 H
   H153       1.0     0.317601      0.039708      0.803334     Biso  1.000000 H
   H154       1.0     0.382764      0.069414      0.862596     Biso  1.000000 H
   H155       1.0     0.426036      0.026816      0.885382     Biso  1.000000 H
   H156       1.0     0.389987      0.006025      0.926439     Biso  1.000000 H
   H157       1.0     0.389865      0.055967      0.000460     Biso  1.000000 H
   H158       1.0     0.279337      0.209542      0.385431     Biso  1.000000 H
   H159       1.0     0.844351      0.940808      0.395120     Biso  1.000000 H
   H160       1.0     0.360879      0.161484      0.517220     Biso  1.000000 H
   H161       1.0     0.759665      0.913336      0.369599     Biso  1.000000 H
   H162       1.0     0.563786      0.648868      0.466725     Biso  1.000000 H
   H163       1.0     0.487303      0.667412      0.499982     Biso  1.000000 H
   H164       1.0     0.606588      0.508251      0.294782     Biso  1.000000 H
   H165       1.0     0.540843      0.536275      0.342085     Biso  1.000000 H
   H166       1.0     0.545755      0.564681      0.438313     Biso  1.000000 H
   H167       1.0     0.681952      0.547552      0.448335     Biso  1.000000 H
   H168       1.0     0.674349      0.512074      0.352712     Biso  1.000000 H
   H169       1.0     0.597041      0.648500      0.659169     Biso  1.000000 H
   H170       1.0     0.444217      0.583124      0.636846     Biso  1.000000 H
   H171       1.0     0.578116      0.565975      0.679151     Biso  1.000000 H
   H172       1.0     0.524266      0.529723      0.513625     Biso  1.000000 H
   H173       1.0     0.454232      0.553258      0.542084     Biso  1.000000 H
   H174       1.0     0.659153      0.395040      0.790453     Biso  1.000000 H
   H175       1.0     0.588589      0.389560      0.726051     Biso  1.000000 H
   H176       1.0     0.572574      0.427889      0.649092     Biso  1.000000 H
   H177       1.0     0.704939      0.469064      0.668121     Biso  1.000000 H
   H178       1.0     0.504544      0.594223      0.704880     Biso  1.000000 H
   H179       1.0     0.716029      0.436190      0.753621     Biso  1.000000 H
   H180       1.0     0.517807      0.665972      0.686239     Biso  1.000000 H
   H181       1.0     0.775896      0.566834      0.536254     Biso  1.000000 H
   H182       1.0     0.713868      0.753517      0.167101     Biso  1.000000 H
   H183       1.0     0.766047      0.762427      0.082939     Biso  1.000000 H
   H184       1.0     0.541725      0.709943      0.244746     Biso  1.000000 H
   H185       1.0     0.603002      0.668455      0.246610     Biso  1.000000 H
   H186       1.0     0.669098      0.681542      0.305900     Biso  1.000000 H
   H187       1.0     0.614430      0.774116      0.355502     Biso  1.000000 H
   H188       1.0     0.552926      0.763838      0.295264     Biso  1.000000 H
   H189       1.0     0.469710      0.679121      0.605847     Biso  1.000000 H
   H190       1.0     0.853485      0.815047      0.488346     Biso  1.000000 H
   H191       1.0     0.727633      0.785931      0.537281     Biso  1.000000 H
   H192       1.0     0.806471      0.719963      0.422958     Biso  1.000000 H
   H193       1.0     0.857681      0.764309      0.417031     Biso  1.000000 H
   H194       1.0     0.773074      0.568471      0.666720     Biso  1.000000 H
   H195       1.0     0.739464      0.614082      0.711426     Biso  1.000000 H
   H196       1.0     0.713673      0.656386      0.660858     Biso  1.000000 H
   H197       1.0     0.744775      0.612418      0.485782     Biso  1.000000 H
   H198       1.0     0.785781      0.823456      0.542403     Biso  1.000000 H
   H199       1.0     0.771253      0.829369      0.275841     Biso  1.000000 H
   H200       1.0     0.478706      0.427995      0.426988     Biso  1.000000 H
   H201       1.0     0.586313      0.490563      0.451610     Biso  1.000000 H
   H202       1.0     0.539974      0.260852      0.278094     Biso  1.000000 H
   H203       1.0     0.508715      0.274617      0.173655     Biso  1.000000 H
   H204       1.0     0.452615      0.369188      0.604260     Biso  1.000000 H
   H205       1.0     0.489099      0.319883      0.626232     Biso  1.000000 H
   H206       1.0     0.499693      0.277971      0.540307     Biso  1.000000 H
   H207       1.0     0.439308      0.345078      0.415939     Biso  1.000000 H
   H208       1.0     0.422408      0.382152      0.498973     Biso  1.000000 H
   H209       1.0     0.520060      0.362429      0.336616     Biso  1.000000 H
   H210       1.0     0.409548      0.268290      0.169020     Biso  1.000000 H
   H211       1.0     0.421820      0.202410      0.322713     Biso  1.000000 H
   H212       1.0     0.389367      0.305908      0.354415     Biso  1.000000 H
   H213       1.0     0.385442      0.313025      0.236149     Biso  1.000000 H
   H214       1.0     0.230431      0.153643      0.583182     Biso  1.000000 H
   H215       1.0     0.226574      0.220962      0.571944     Biso  1.000000 H
   H216       1.0     0.283875      0.249183      0.547094     Biso  1.000000 H
   H217       1.0     0.801204      0.293465      0.733037     Biso  1.000000 H
   H218       1.0     0.429126      0.211396      0.214529     Biso  1.000000 H
   H219       1.0     0.511054      0.482748      0.422777     Biso  1.000000 H
   H220       1.0     0.492419      0.376187      0.230847     Biso  1.000000 H
   H221       1.0     0.756274      0.270021      0.376118     Biso  1.000000 H
   H222       1.0     0.599828      0.389402      0.486291     Biso  1.000000 H
   H223       1.0     0.527855      0.379112      0.460364     Biso  1.000000 H
   H224       1.0     0.851832      0.397967      0.336519     Biso  1.000000 H
   H225       1.0     0.815371      0.456127      0.315380     Biso  1.000000 H
   H226       1.0     0.739576      0.461992      0.334664     Biso  1.000000 H
   H227       1.0     0.735999      0.363438      0.411303     Biso  1.000000 H
   H228       1.0     0.809635      0.353004      0.367619     Biso  1.000000 H
   H229       1.0     0.484590      0.336886      0.154286     Biso  1.000000 H
   H230       1.0     0.638332      0.387375      0.068276     Biso  1.000000 H
   H231       1.0     0.717361      0.376688      0.227086     Biso  1.000000 H
   H232       1.0     0.581532      0.386406      0.252097     Biso  1.000000 H
   H233       1.0     0.573127      0.390993      0.139038     Biso  1.000000 H
   H234       1.0     0.784043      0.270154      0.262549     Biso  1.000000 H
   H235       1.0     0.725300      0.285288      0.179244     Biso  1.000000 H
   H236       1.0     0.656503      0.302745      0.215723     Biso  1.000000 H
   H237       1.0     0.690935      0.293147      0.404812     Biso  1.000000 H
   H238       1.0     0.711251      0.384571      0.113503     Biso  1.000000 H
   H239       1.0     0.825914      0.836999      0.186955     Biso  1.000000 H
   H240       1.0     0.819334      0.806063      0.091486     Biso  1.000000 H
   H241       1.0     0.666388      0.951680      0.336792     Biso  1.000000 H
   H242       1.0     0.539302      0.486955      0.768671     Biso  1.000000 H
   H243       1.0     0.424019      0.529054      0.857974     Biso  1.000000 H
   H244       1.0     0.378277      0.504668      0.782847     Biso  1.000000 H
   H245       1.0     0.348460      0.564178      0.024704     Biso  1.000000 H
   H246       1.0     0.404943      0.601767      0.041525     Biso  1.000000 H
   H247       1.0     0.476392      0.585346      0.017495     Biso  1.000000 H
   H248       1.0     0.434843      0.487293      0.972945     Biso  1.000000 H
   H249       1.0     0.489473      0.463814      0.689445     Biso  1.000000 H
   H250       1.0     0.360978      0.504673      0.004138     Biso  1.000000 H
   H251       1.0     0.477837      0.461456      0.276142     Biso  1.000000 H
   H252       1.0     0.471800      0.501512      0.192433     Biso  1.000000 H
   H253       1.0     0.604600      0.483880      0.143927     Biso  1.000000 H
   H254       1.0     0.609272      0.442858      0.231643     Biso  1.000000 H
   H255       1.0     0.705470      0.648421      0.194480     Biso  1.000000 H
   H256       1.0     0.667621      0.655403      0.096831     Biso  1.000000 H
   H257       1.0     0.597150      0.625335      0.072736     Biso  1.000000 H
   H258       1.0     0.547410      0.432244      0.294616     Biso  1.000000 H
   H259       1.0     0.611704      0.581908      0.258510     Biso  1.000000 H
   H260       1.0     0.417656      0.469720      0.692263     Biso  1.000000 H
   H261       1.0     0.580497      0.599715      0.978011     Biso  1.000000 H
   H262       1.0     0.798983      0.914338      0.271881     Biso  1.000000 H
   H263       1.0     0.860004      0.948586      0.289693     Biso  1.000000 H
   H264       1.0     0.824380      0.983854      0.312905     Biso  1.000000 H
   H265       1.0     0.889045      0.577070      0.719805     Biso  1.000000 H
   H266       1.0     0.878997      0.626962      0.793382     Biso  1.000000 H
   H267       1.0     0.815320      0.628257      0.856373     Biso  1.000000 H
   H268       1.0     0.773972      0.537325      0.772817     Biso  1.000000 H
   H269       1.0     0.541996      0.650064      0.996074     Biso  1.000000 H
   H270       1.0     0.841478      0.529935      0.719153     Biso  1.000000 H
   H271       1.0     0.652118      0.564247      0.081054     Biso  1.000000 H
   H272       1.0     0.648510      0.599713      0.981190     Biso  1.000000 H
   H273       1.0     0.689222      0.519548      0.872983     Biso  1.000000 H
   H274       1.0     0.690718      0.482637      0.969795     Biso  1.000000 H
   H275       1.0     0.505478      0.679493      0.906688     Biso  1.000000 H
   H276       1.0     0.502371      0.653681      0.806466     Biso  1.000000 H
   H277       1.0     0.545164      0.601912      0.785633     Biso  1.000000 H
   H278       1.0     0.673173      0.507035      0.071952     Biso  1.000000 H
   H279       1.0     0.671805      0.613818      0.275397     Biso  1.000000 H
   H280       1.0     0.481026      0.591671      0.431901     Biso  1.000000 H
   H281       1.0     0.453347      0.552400      0.347701     Biso  1.000000 H
   H282       1.0     0.437026      0.806186      0.154998     Biso  1.000000 H
   H283       1.0     0.387104      0.835288      0.222455     Biso  1.000000 H
   H284       1.0     0.638402      0.967547      0.013459     Biso  1.000000 H
   H285       1.0     0.587876      0.968896      0.103762     Biso  1.000000 H
   H286       1.0     0.544249      0.922325      0.131656     Biso  1.000000 H
   H287       1.0     0.615619      0.859864      0.009461     Biso  1.000000 H
   H288       1.0     0.652918      0.907934      0.961587     Biso  1.000000 H
   H289       1.0     0.464194      0.891646      0.053034     Biso  1.000000 H
   H290       1.0     0.454060      0.906530      0.326276     Biso  1.000000 H
   H291       1.0     0.517424      0.818521      0.250436     Biso  1.000000 H
   H292       1.0     0.575198      0.913250      0.239138     Biso  1.000000 H
   H293       1.0     0.512556      0.940036      0.285131     Biso  1.000000 H
   H294       1.0     0.617850      0.947414      0.418072     Biso  1.000000 H
   H295       1.0     0.584459      0.890812      0.434006     Biso  1.000000 H
   H296       1.0     0.606626      0.841063      0.372713     Biso  1.000000 H
   H297       1.0     0.685509      0.903983      0.263803     Biso  1.000000 H
   H298       1.0     0.454312      0.842681      0.296578     Biso  1.000000 H
   H299       1.0     0.412974      0.922424      0.109812     Biso  1.000000 H
   H300       1.0     0.371889      0.893187      0.193616     Biso  1.000000 H
   H301       1.0     0.526692      0.732204      0.801363     Biso  1.000000 H
   H302       1.0     0.470173      0.563426      0.240082     Biso  1.000000 H
   H303       1.0     0.510994      0.661614      0.288883     Biso  1.000000 H
   H304       1.0     0.502688      0.651065      0.398455     Biso  1.000000 H
   H305       1.0     0.318068      0.708540      0.002141     Biso  1.000000 H
   H306       1.0     0.329167      0.703672      0.113620     Biso  1.000000 H
   H307       1.0     0.394665      0.690657      0.163041     Biso  1.000000 H
   H308       1.0     0.446569      0.670440      0.978062     Biso  1.000000 H
   H309       1.0     0.376158      0.688232      0.933804     Biso  1.000000 H
   H310       1.0     0.686260      0.738492      0.061319     Biso  1.000000 H
   H311       1.0     0.643330      0.753828      0.145950     Biso  1.000000 H
   H312       1.0     0.561862      0.743133      0.141699     Biso  1.000000 H
   H313       1.0     0.578442      0.700989      0.960435     Biso  1.000000 H
   H314       1.0     0.657478      0.708858      0.963817     Biso  1.000000 H
   H315       1.0     0.447994      0.722214      0.774316     Biso  1.000000 H
   H316       1.0     0.390939      0.733861      0.859154     Biso  1.000000 H
   H317       1.0     0.415486      0.754592      0.956266     Biso  1.000000 H
   H318       1.0     0.547807      0.750568      0.899715     Biso  1.000000 H
   H319       1.0     0.775072      0.957791      0.381855     Biso  1.000000 H
   H320       1.0     0.875942      0.332351      0.706818     Biso  1.000000 H
   H321       1.0     0.709276      0.556296      0.802904     Biso  1.000000 H
   H322       1.0     0.816793      0.351473      0.792873     Biso  1.000000 H
   H323       1.0     0.257631      0.263385      0.807405     Biso  1.000000 H
   H324       1.0     0.293524      0.284193      0.914511     Biso  1.000000 H
   H325       1.0     0.342001      0.225884      0.880598     Biso  1.000000 H
   H326       1.0     0.324549      0.224659      0.959727     Biso  1.000000 H
   H327       1.0     0.372678      0.280126      0.903500     Biso  1.000000 H
   H328       1.0     0.416653      0.228121      0.899169     Biso  1.000000 H
   H329       1.0     0.405423      0.223332      0.972196     Biso  1.000000 H
   H330       1.0     0.302309      0.239689      0.805971     Biso  1.000000 H
   H331       1.0     0.444249      0.280834      0.995773     Biso  1.000000 H
   H332       1.0     0.481550      0.265417      0.875250     Biso  1.000000 H
   H333       1.0     0.477425      0.331538      0.931514     Biso  1.000000 H
   H334       1.0     0.549650      0.283071      0.937566     Biso  1.000000 H
   H335       1.0     0.521572      0.295011      0.003971     Biso  1.000000 H
   H336       1.0     0.573431      0.346994      0.928993     Biso  1.000000 H
   H337       1.0     0.551466      0.362035      0.063190     Biso  1.000000 H
   H338       1.0     0.505417      0.346846      0.026948     Biso  1.000000 H
   H339       1.0     0.439404      0.291322      0.879913     Biso  1.000000 H
   H340       1.0     0.515142      0.388712      0.937552     Biso  1.000000 H
   H341       1.0     0.349617      0.285815      0.809279     Biso  1.000000 H
   H342       1.0     0.320998      0.260926      0.715466     Biso  1.000000 H
   H343       1.0     0.550270      0.324460      0.402749     Biso  1.000000 H
   H344       1.0     0.546675      0.267774      0.451425     Biso  1.000000 H
   H345       1.0     0.532268      0.252788      0.378649     Biso  1.000000 H
   H346       1.0     0.469659      0.294631      0.380139     Biso  1.000000 H
   H347       1.0     0.461548      0.240722      0.468701     Biso  1.000000 H
   H348       1.0     0.473695      0.228903      0.400616     Biso  1.000000 H
   H349       1.0     0.395298      0.275397      0.432313     Biso  1.000000 H
   H350       1.0     0.292955      0.295586      0.698602     Biso  1.000000 H
   H351       1.0     0.402000      0.198790      0.454807     Biso  1.000000 H
   H352       1.0     0.353171      0.257084      0.499079     Biso  1.000000 H
   H353       1.0     0.420293      0.254894      0.544064     Biso  1.000000 H
   H354       1.0     0.417496      0.213209      0.572652     Biso  1.000000 H
   H355       1.0     0.355689      0.236177      0.639691     Biso  1.000000 H
   H356       1.0     0.344644      0.286188      0.601364     Biso  1.000000 H
   H357       1.0     0.401115      0.297149      0.616285     Biso  1.000000 H
   H358       1.0     0.386720      0.297822      0.724446     Biso  1.000000 H
   H359       1.0     0.356747      0.213941      0.417272     Biso  1.000000 H
   H360       1.0     0.604162      0.269508      0.360189     Biso  1.000000 H
   H361       1.0     0.569225      0.424119      0.033613     Biso  1.000000 H
   H362       1.0     0.065888      0.527535      0.627768     Biso  1.000000 H
   H363       1.0     0.965377      0.639805      0.141721     Biso  1.000000 H
   H364       1.0     0.970369      0.666396      0.204568     Biso  1.000000 H
   H365       1.0     0.935905      0.690565      0.079608     Biso  1.000000 H
   H366       1.0     0.024776      0.680719      0.111615     Biso  1.000000 H
   H367       1.0     0.012076      0.705509      0.053728     Biso  1.000000 H
   H368       1.0     0.990091      0.633009      0.047767     Biso  1.000000 H
   H369       1.0     0.072784      0.661659      0.997953     Biso  1.000000 H
   H370       1.0     0.888872      0.653681      0.129763     Biso  1.000000 H
   H371       1.0     0.052948      0.621382      0.984160     Biso  1.000000 H
   H372       1.0     0.133240      0.647114      0.030932     Biso  1.000000 H
   H373       1.0     0.125631      0.603340      0.038507     Biso  1.000000 H
   H374       1.0     0.132399      0.601871      0.148525     Biso  1.000000 H
   H375       1.0     0.165361      0.638089      0.210537     Biso  1.000000 H
   H376       1.0     0.119197      0.659060      0.188717     Biso  1.000000 H
   H377       1.0     0.208303      0.672351      0.157393     Biso  1.000000 H
   H378       1.0     0.136822      0.705583      0.234590     Biso  1.000000 H
   H379       1.0     0.073983      0.651092      0.113345     Biso  1.000000 H
   H380       1.0     0.554121      0.441053      0.965136     Biso  1.000000 H
   H381       1.0     0.910319      0.622550      0.258084     Biso  1.000000 H
   H382       1.0     0.835393      0.615517      0.222284     Biso  1.000000 H
   H383       1.0     0.085315      0.518278      0.720721     Biso  1.000000 H
   H384       1.0     0.058681      0.568175      0.651924     Biso  1.000000 H
   H385       1.0     0.062765      0.533094      0.524165     Biso  1.000000 H
   H386       1.0     0.061970      0.577563      0.522920     Biso  1.000000 H
   H387       1.0     0.992008      0.583353      0.575464     Biso  1.000000 H
   H388       1.0     0.995134      0.535059      0.465851     Biso  1.000000 H
   H389       1.0     0.995226      0.580291      0.458680     Biso  1.000000 H
   H390       1.0     0.928779      0.600887      0.192673     Biso  1.000000 H
   H391       1.0     0.920415      0.538206      0.506755     Biso  1.000000 H
   H392       1.0     0.929763      0.568039      0.381032     Biso  1.000000 H
   H393       1.0     0.845882      0.562856      0.425752     Biso  1.000000 H
   H394       1.0     0.824761      0.526275      0.339114     Biso  1.000000 H
   H395       1.0     0.877690      0.519353      0.321001     Biso  1.000000 H
   H396       1.0     0.884523      0.583982      0.319637     Biso  1.000000 H
   H397       1.0     0.824572      0.554250      0.226683     Biso  1.000000 H
   H398       1.0     0.879901      0.552960      0.220077     Biso  1.000000 H
   H399       1.0     0.933675      0.528154      0.394153     Biso  1.000000 H
   H400       1.0     0.613359      0.297275      0.417350     Biso  1.000000 H
   H401       1.0     0.610141      0.315575      0.281726     Biso  1.000000 H
   H402       1.0     0.635513      0.355643      0.397104     Biso  1.000000 H
   H403       1.0     0.519079      0.607767      0.094999     Biso  1.000000 H
   H404       1.0     0.529980      0.640860      0.193374     Biso  1.000000 H
   H405       1.0     0.452609      0.662569      0.197887     Biso  1.000000 H
   H406       1.0     0.433821      0.628572      0.162075     Biso  1.000000 H
   H407       1.0     0.474459      0.649344      0.064605     Biso  1.000000 H
   H408       1.0     0.534975      0.674083      0.120601     Biso  1.000000 H
   H409       1.0     0.503621      0.700432      0.153602     Biso  1.000000 H
   H410       1.0     0.490166      0.579149      0.141514     Biso  1.000000 H
   H411       1.0     0.511173      0.700010      0.011176     Biso  1.000000 H
   H412       1.0     0.454223      0.739054      0.046779     Biso  1.000000 H
   H413       1.0     0.528341      0.778614      0.995389     Biso  1.000000 H
   H414       1.0     0.435457      0.797906      0.026001     Biso  1.000000 H
   H415       1.0     0.468604      0.815071      0.967180     Biso  1.000000 H
   H416       1.0     0.493129      0.807281      0.100991     Biso  1.000000 H
   H417       1.0     0.526417      0.860029      0.012967     Biso  1.000000 H
   H418       1.0     0.555246      0.825574      0.022390     Biso  1.000000 H
   H419       1.0     0.492685      0.752869      0.096309     Biso  1.000000 H
   H420       1.0     0.533080      0.872021      0.126093     Biso  1.000000 H
   H421       1.0     0.553501      0.567292      0.203666     Biso  1.000000 H
   H422       1.0     0.564530      0.560286      0.064542     Biso  1.000000 H
   H423       1.0     0.496718      0.208965      0.808955     Biso  1.000000 H
   H424       1.0     0.747891      0.608605      0.884679     Biso  1.000000 H
   H425       1.0     0.702776      0.595304      0.780196     Biso  1.000000 H
   H426       1.0     0.664534      0.607774      0.876962     Biso  1.000000 H
   H427       1.0     0.638137      0.546945      0.803376     Biso  1.000000 H
   H428       1.0     0.620560      0.584942      0.791481     Biso  1.000000 H
   H429       1.0     0.591669      0.554338      0.915228     Biso  1.000000 H
   H430       1.0     0.596310      0.540973      0.115771     Biso  1.000000 H
   H431       1.0     0.579599      0.519864      0.823548     Biso  1.000000 H
   H432       1.0     0.495893      0.549278      0.882574     Biso  1.000000 H
   H433       1.0     0.559094      0.502932      0.929659     Biso  1.000000 H
   H434       1.0     0.511230      0.485411      0.927295     Biso  1.000000 H
   H435       1.0     0.527414      0.549914      0.987709     Biso  1.000000 H
   H436       1.0     0.563188      0.500459      0.033573     Biso  1.000000 H
   H437       1.0     0.508670      0.481475      0.045367     Biso  1.000000 H
   H438       1.0     0.499054      0.531863      0.125066     Biso  1.000000 H
   H439       1.0     0.553495      0.549754      0.788335     Biso  1.000000 H
   H440       1.0     0.607166      0.824462      0.117867     Biso  1.000000 H
   H441       1.0     0.559820      0.814021      0.147767     Biso  1.000000 H
   H442       1.0     0.613168      0.871488      0.193058     Biso  1.000000 H
   H443       1.0     0.635529      0.576012      0.601757     Biso  1.000000 H
   H444       1.0     0.664327      0.551389      0.551813     Biso  1.000000 H
   H445       1.0     0.592698      0.520574      0.535273     Biso  1.000000 H
   H446       1.0     0.602720      0.508471      0.666576     Biso  1.000000 H
   H447       1.0     0.648226      0.521787      0.648981     Biso  1.000000 H
   H448       1.0     0.591401      0.470876      0.588262     Biso  1.000000 H
   H449       1.0     0.686828      0.475974      0.556283     Biso  1.000000 H
   H450       1.0     0.584348      0.590295      0.511543     Biso  1.000000 H
   H451       1.0     0.648226      0.495297      0.516392     Biso  1.000000 H
   H452       1.0     0.706889      0.446875      0.466675     Biso  1.000000 H
   H453       1.0     0.674023      0.465350      0.413991     Biso  1.000000 H
   H454       1.0     0.681610      0.394260      0.431350     Biso  1.000000 H
   H455       1.0     0.662860      0.429879      0.308038     Biso  1.000000 H
   H456       1.0     0.620576      0.417054      0.357394     Biso  1.000000 H
   H457       1.0     0.689046      0.366838      0.324929     Biso  1.000000 H
   H458       1.0     0.594638      0.364109      0.335649     Biso  1.000000 H
   H459       1.0     0.652214      0.422654      0.525691     Biso  1.000000 H
   H460       1.0     0.624213      0.626693      0.451319     Biso  1.000000 H
   H461       1.0     0.671556      0.610171      0.482442     Biso  1.000000 H
   H462       1.0     0.646385      0.626565      0.588178     Biso  1.000000 H
   H463       1.0     0.633631      0.811029      0.205674     Biso  1.000000 H
   H464       1.0     0.602148      0.812985      0.269572     Biso  1.000000 H
   H465       1.0     0.682201      0.853639      0.243737     Biso  1.000000 H
   H466       1.0     0.665068      0.804070      0.352782     Biso  1.000000 H
   H467       1.0     0.708982      0.826987      0.337046     Biso  1.000000 H
   H468       1.0     0.675822      0.773665      0.255299     Biso  1.000000 H
   H469       1.0     0.749486      0.768128      0.350491     Biso  1.000000 H
   H470       1.0     0.734021      0.739205      0.290304     Biso  1.000000 H
   H471       1.0     0.678800      0.758015      0.402920     Biso  1.000000 H
   H472       1.0     0.737166      0.703275      0.389554     Biso  1.000000 H
   H473       1.0     0.687602      0.690972      0.408944     Biso  1.000000 H
   H474       1.0     0.697605      0.736919      0.501494     Biso  1.000000 H
   H475       1.0     0.738476      0.709369      0.564014     Biso  1.000000 H
   H476       1.0     0.766753      0.688173      0.504756     Biso  1.000000 H
   H477       1.0     0.705677      0.657538      0.474577     Biso  1.000000 H
   H478       1.0     0.643247      0.685115      0.501837     Biso  1.000000 H
   H479       1.0     0.657337      0.688430      0.582576     Biso  1.000000 H
   H480       1.0     0.184619      0.727250      0.212910     Biso  1.000000 H
   H481       1.0     0.202890      0.719800      0.301181     Biso  1.000000 H
   H482       1.0     0.194964      0.664053      0.362807     Biso  1.000000 H
   H483       1.0     0.153715      0.656451      0.313252     Biso  1.000000 H
   H484       1.0     0.926548      0.275589      0.191955     Biso  1.000000 H
   H485       1.0     0.970411      0.234286      0.248026     Biso  1.000000 H
   H486       1.0     0.012466      0.260268      0.259819     Biso  1.000000 H
   H487       1.0     0.024230      0.267052      0.147025     Biso  1.000000 H
   H488       1.0     0.955090      0.245772      0.103534     Biso  1.000000 H
   H489       1.0     0.969736      0.207826      0.124497     Biso  1.000000 H
   H490       1.0     0.038448      0.224883      0.048318     Biso  1.000000 H
   H491       1.0     0.977192      0.308254      0.135190     Biso  1.000000 H
   H492       1.0     0.983852      0.205757      0.962128     Biso  1.000000 H
   H493       1.0     0.007842      0.169072      0.071728     Biso  1.000000 H
   H494       1.0     0.973853      0.121044      0.032496     Biso  1.000000 H
   H495       1.0     0.936413      0.144558      0.993293     Biso  1.000000 H
   H496       1.0     0.955294      0.156321      0.127340     Biso  1.000000 H
   H497       1.0     0.938775      0.098407      0.105370     Biso  1.000000 H
   H498       1.0     0.884433      0.113062      0.081572     Biso  1.000000 H
   H499       1.0     0.868940      0.135537      0.178055     Biso  1.000000 H
   H500       1.0     0.945870      0.210070      0.015652     Biso  1.000000 H
   H501       1.0     0.943626      0.137993      0.223505     Biso  1.000000 H
   H502       1.0     0.000578      0.319908      0.206706     Biso  1.000000 H
   H503       1.0     0.937053      0.388058      0.116188     Biso  1.000000 H
   H504       1.0     0.718832      0.455269      0.056105     Biso  1.000000 H
   H505       1.0     0.670354      0.202874      0.032807     Biso  1.000000 H
   H506       1.0     0.750192      0.423522      0.085491     Biso  1.000000 H
   H507       1.0     0.774385      0.487413      0.038557     Biso  1.000000 H
   H508       1.0     0.812348      0.456650      0.041454     Biso  1.000000 H
   H509       1.0     0.783589      0.446811      0.153648     Biso  1.000000 H
   H510       1.0     0.823735      0.486841      0.212637     Biso  1.000000 H
   H511       1.0     0.932115      0.356067      0.220803     Biso  1.000000 H
   H512       1.0     0.843980      0.505950      0.145293     Biso  1.000000 H
   H513       1.0     0.885024      0.469930      0.241974     Biso  1.000000 H
   H514       1.0     0.922118      0.480176      0.187521     Biso  1.000000 H
   H515       1.0     0.915219      0.407288      0.213405     Biso  1.000000 H
   H516       1.0     0.999659      0.444325      0.215825     Biso  1.000000 H
   H517       1.0     0.971143      0.443945      0.143643     Biso  1.000000 H
   H518       1.0     0.000063      0.387222      0.221377     Biso  1.000000 H
   H519       1.0     0.979343      0.363401      0.101293     Biso  1.000000 H
   H520       1.0     0.854217      0.432474      0.166901     Biso  1.000000 H
   H521       1.0     0.945796      0.093943      0.228405     Biso  1.000000 H
   H522       1.0     0.884209      0.098133      0.303263     Biso  1.000000 H
   H523       1.0     0.966720      0.126309      0.344958     Biso  1.000000 H
   H524       1.0     0.149497      0.311486      0.734106     Biso  1.000000 H
   H525       1.0     0.095874      0.349071      0.686956     Biso  1.000000 H
   H526       1.0     0.131460      0.334837      0.570056     Biso  1.000000 H
   H527       1.0     0.136957      0.377272      0.591759     Biso  1.000000 H
   H528       1.0     0.060723      0.331974      0.591371     Biso  1.000000 H
   H529       1.0     0.019145      0.393910      0.589270     Biso  1.000000 H
   H530       1.0     0.059167      0.400263      0.636943     Biso  1.000000 H
   H531       1.0     0.178605      0.306929      0.668209     Biso  1.000000 H
   H532       1.0     0.030574      0.350669      0.701257     Biso  1.000000 H
   H533       1.0     0.014042      0.410491      0.717783     Biso  1.000000 H
   H534       1.0     0.967627      0.353169      0.768658     Biso  1.000000 H
   H535       1.0     0.951434      0.423253      0.801534     Biso  1.000000 H
   H536       1.0     0.948014      0.391789      0.853745     Biso  1.000000 H
   H537       1.0     0.906219      0.372268      0.740394     Biso  1.000000 H
   H538       1.0     0.873417      0.368574      0.866617     Biso  1.000000 H
   H539       1.0     0.908955      0.340879      0.837626     Biso  1.000000 H
   H540       1.0     0.963057      0.400443      0.686174     Biso  1.000000 H
   H541       1.0     0.088294      0.289142      0.687396     Biso  1.000000 H
   H542       1.0     0.144080      0.262329      0.762028     Biso  1.000000 H
   H543       1.0     0.169599      0.244628      0.701461     Biso  1.000000 H
   H544       1.0     0.953425      0.082141      0.335751     Biso  1.000000 H
   H545       1.0     0.910313      0.133747      0.431406     Biso  1.000000 H
   H546       1.0     0.978177      0.081998      0.450301     Biso  1.000000 H
   H547       1.0     0.937123      0.087504      0.503229     Biso  1.000000 H
   H548       1.0     0.954821      0.143137      0.526705     Biso  1.000000 H
   H549       1.0     0.042449      0.116702      0.527764     Biso  1.000000 H
   H550       1.0     0.004646      0.090999      0.558670     Biso  1.000000 H
   H551       1.0     0.018423      0.161697      0.597390     Biso  1.000000 H
   H552       1.0     0.059301      0.097440      0.633875     Biso  1.000000 H
   H553       1.0     0.035022      0.119045      0.697635     Biso  1.000000 H
   H554       1.0     0.078591      0.170984      0.650513     Biso  1.000000 H
   H555       1.0     0.139647      0.119987      0.691074     Biso  1.000000 H
   H556       1.0     0.104238      0.134011      0.744243     Biso  1.000000 H
   H557       1.0     0.160446      0.179536      0.668853     Biso  1.000000 H
   H558       1.0     0.158880      0.208272      0.782847     Biso  1.000000 H
   H559       1.0     0.115631      0.184685      0.789616     Biso  1.000000 H
   H560       1.0     0.096654      0.216523      0.681141     Biso  1.000000 H
   H561       1.0     0.127695      0.499926      0.755088     Biso  1.000000 H
   H562       1.0     0.878419      0.293396      0.741735     Biso  1.000000 H
   H563       1.0     0.074334      0.482408      0.769166     Biso  1.000000 H
   H564       1.0     0.114247      0.572175      0.864627     Biso  1.000000 H
   H565       1.0     0.172328      0.939407      0.237834     Biso  1.000000 H
   H566       1.0     0.197828      0.971093      0.120262     Biso  1.000000 H
   H567       1.0     0.131667      0.919354      0.153796     Biso  1.000000 H
   H568       1.0     0.158135      0.921543      0.082439     Biso  1.000000 H
   H569       1.0     0.109095      0.973702      0.142160     Biso  1.000000 H
   H570       1.0     0.076197      0.922461      0.044722     Biso  1.000000 H
   H571       1.0     0.071701      0.963700      0.029015     Biso  1.000000 H
   H572       1.0     0.160206      0.981304      0.217148     Biso  1.000000 H
   H573       1.0     0.038784      0.972686      0.128349     Biso  1.000000 H
   H574       1.0     0.004331      0.949673      0.031215     Biso  1.000000 H
   H575       1.0     0.965377      0.961586      0.162481     Biso  1.000000 H
   H576       1.0     0.918606      0.002270      0.100420     Biso  1.000000 H
   H577       1.0     0.934851      0.988387      0.035704     Biso  1.000000 H
   H578       1.0     0.012763      0.008289      0.067340     Biso  1.000000 H
   H579       1.0     0.995399      0.066580      0.027343     Biso  1.000000 H
   H580       1.0     0.942006      0.055880      0.031791     Biso  1.000000 H
   H581       1.0     0.992261      0.916624      0.072238     Biso  1.000000 H
   H582       1.0     0.965742      0.003914      0.962003     Biso  1.000000 H
   H583       1.0     0.252706      0.958871      0.245565     Biso  1.000000 H
   H584       1.0     0.239383      0.996505      0.338161     Biso  1.000000 H
   H585       1.0     0.126669      0.713704      0.338550     Biso  1.000000 H
   H586       1.0     0.194855      0.735160      0.387129     Biso  1.000000 H
   H587       1.0     0.188259      0.706190      0.443463     Biso  1.000000 H
   H588       1.0     0.110482      0.743214      0.445314     Biso  1.000000 H
   H589       1.0     0.188224      0.787321      0.429986     Biso  1.000000 H
   H590       1.0     0.145573      0.798344      0.473138     Biso  1.000000 H
   H591       1.0     0.141485      0.781548      0.335460     Biso  1.000000 H
   H592       1.0     0.183571      0.997678      0.319794     Biso  1.000000 H
   H593       1.0     0.146618      0.849137      0.404752     Biso  1.000000 H
   H594       1.0     0.209365      0.827796      0.360947     Biso  1.000000 H
   H595       1.0     0.172437      0.889268      0.306599     Biso  1.000000 H
   H596       1.0     0.220198      0.877927      0.275166     Biso  1.000000 H
   H597       1.0     0.205175      0.892805      0.412099     Biso  1.000000 H
   H598       1.0     0.250878      0.920942      0.309018     Biso  1.000000 H
   H599       1.0     0.264157      0.937545      0.378163     Biso  1.000000 H
   H600       1.0     0.173600      0.938194      0.341849     Biso  1.000000 H
   H601       1.0     0.123138      0.842656      0.332142     Biso  1.000000 H
   H602       1.0     0.045444      0.020496      0.978437     Biso  1.000000 H
   H603       1.0     0.035674      0.054561      0.938546     Biso  1.000000 H
   H604       1.0     0.007330      0.019038      0.845529     Biso  1.000000 H
   H605       1.0     0.276598      0.744719      0.933749     Biso  1.000000 H
   H606       1.0     0.324725      0.736036      0.899868     Biso  1.000000 H
   H607       1.0     0.237462      0.722507      0.840860     Biso  1.000000 H
   H608       1.0     0.254336      0.681843      0.928317     Biso  1.000000 H
   H609       1.0     0.308838      0.679693      0.905203     Biso  1.000000 H
   H610       1.0     0.282290      0.652880      0.805384     Biso  1.000000 H
   H611       1.0     0.243093      0.613979      0.919027     Biso  1.000000 H
   H612       1.0     0.312360      0.774572      0.822604     Biso  1.000000 H
   H613       1.0     0.297566      0.626666      0.920156     Biso  1.000000 H
   H614       1.0     0.276196      0.566276      0.938001     Biso  1.000000 H
   H615       1.0     0.311213      0.546255      0.886354     Biso  1.000000 H
   H616       1.0     0.240866      0.521933      0.903060     Biso  1.000000 H
   H617       1.0     0.202912      0.571443      0.815326     Biso  1.000000 H
   H618       1.0     0.204155      0.571445      0.896269     Biso  1.000000 H
   H619       1.0     0.170999      0.512979      0.824542     Biso  1.000000 H
   H620       1.0     0.127350      0.564614      0.791245     Biso  1.000000 H
   H621       1.0     0.273272      0.591775      0.805175     Biso  1.000000 H
   H622       1.0     0.229022      0.787242      0.886969     Biso  1.000000 H
   H623       1.0     0.235046      0.773408      0.816788     Biso  1.000000 H
   H624       1.0     0.264202      0.844081      0.853260     Biso  1.000000 H
   H625       1.0     0.101138      0.008910      0.879599     Biso  1.000000 H
   H626       1.0     0.080553      0.045331      0.856878     Biso  1.000000 H
   H627       1.0     0.055463      0.022816      0.754699     Biso  1.000000 H
   H628       1.0     0.035952      0.971768      0.780997     Biso  1.000000 H
   H629       1.0     0.087344      0.956159      0.793674     Biso  1.000000 H
   H630       1.0     0.103646      0.969759      0.675857     Biso  1.000000 H
   H631       1.0     0.064421      0.930441      0.622281     Biso  1.000000 H
   H632       1.0     0.031903      0.925706      0.682325     Biso  1.000000 H
   H633       1.0     0.125276      0.922838      0.720018     Biso  1.000000 H
   H634       1.0     0.055265      0.869577      0.727069     Biso  1.000000 H
   H635       1.0     0.067294      0.899058      0.789153     Biso  1.000000 H
   H636       1.0     0.127465      0.849048      0.730581     Biso  1.000000 H
   H637       1.0     0.137075      0.869503      0.867931     Biso  1.000000 H
   H638       1.0     0.133773      0.901956      0.830751     Biso  1.000000 H
   H639       1.0     0.194242      0.870297      0.763781     Biso  1.000000 H
   H640       1.0     0.180362      0.820020      0.833523     Biso  1.000000 H
   H641       1.0     0.206121      0.841127      0.894395     Biso  1.000000 H
   H642       1.0     0.091237      0.506325      0.853838     Biso  1.000000 H
   H643       1.0     0.523419      0.243588      0.717020     Biso  1.000000 H
   H644       1.0     0.692840      0.934766      0.130882     Biso  1.000000 H
   H645       1.0     0.369527      0.213710      0.734726     Biso  1.000000 H
   H646       1.0     0.700388      0.960886      0.816626     Biso  1.000000 H
   H647       1.0     0.731036      0.934766      0.904661     Biso  1.000000 H
   H648       1.0     0.503672      0.989072      0.840361     Biso  1.000000 H
   H649       1.0     0.505963      0.044628      0.797116     Biso  1.000000 H
   H650       1.0     0.569727      0.079633      0.805148     Biso  1.000000 H
   H651       1.0     0.630253      0.004563      0.912434     Biso  1.000000 H
   H652       1.0     0.568972      0.964903      0.885502     Biso  1.000000 H
   H653       1.0     0.735904      0.055350      0.897462     Biso  1.000000 H
   H654       1.0     0.667037      0.042349      0.142152     Biso  1.000000 H
   H655       1.0     0.602101      0.101011      0.013626     Biso  1.000000 H
   H656       1.0     0.737073      0.081591      0.983614     Biso  1.000000 H
   H657       1.0     0.737665      0.051666      0.090604     Biso  1.000000 H
   H658       1.0     0.830756      0.175274      0.795057     Biso  1.000000 H
   H659       1.0     0.772544      0.215115      0.795635     Biso  1.000000 H
   H660       1.0     0.711682      0.211734      0.862374     Biso  1.000000 H
   H661       1.0     0.782687      0.137152      0.963849     Biso  1.000000 H
   H662       1.0     0.605536      0.066319      0.101110     Biso  1.000000 H
   H663       1.0     0.835620      0.135604      0.884318     Biso  1.000000 H
   H664       1.0     0.779981      0.026865      0.974292     Biso  1.000000 H
   H665       1.0     0.632643      0.961557      0.533094     Biso  1.000000 H
   H666       1.0     0.579595      0.117459      0.338268     Biso  1.000000 H
   H667       1.0     0.595920      0.107726      0.224171     Biso  1.000000 H
   H668       1.0     0.581363      0.993094      0.420570     Biso  1.000000 H
   H669       1.0     0.527746      0.034828      0.456922     Biso  1.000000 H
   H670       1.0     0.552648      0.090165      0.483002     Biso  1.000000 H
   H671       1.0     0.683703      0.064154      0.447895     Biso  1.000000 H
   H672       1.0     0.659181      0.007433      0.417022     Biso  1.000000 H
   H673       1.0     0.768012      0.962977      0.987209     Biso  1.000000 H
   H674       1.0     0.506015      0.133910      0.726320     Biso  1.000000 H
   H675       1.0     0.643547      0.142070      0.686397     Biso  1.000000 H
   H676       1.0     0.571155      0.058142      0.624631     Biso  1.000000 H
   H677       1.0     0.511364      0.076674      0.675274     Biso  1.000000 H
   H678       1.0     0.700296      0.952963      0.488531     Biso  1.000000 H
   H679       1.0     0.767447      0.984491      0.525576     Biso  1.000000 H
   H680       1.0     0.758591      0.024321      0.611362     Biso  1.000000 H
   H681       1.0     0.622161      0.998834      0.624997     Biso  1.000000 H
   H682       1.0     0.579781      0.166651      0.730437     Biso  1.000000 H
   H683       1.0     0.678925      0.188238      0.346397     Biso  1.000000 H
   H684       1.0     0.620160      0.945296      0.733736     Biso  1.000000 H
   H685       1.0     0.525027      0.014215      0.672049     Biso  1.000000 H
   H686       1.0     0.399072      0.107501      0.027139     Biso  1.000000 H
   H687       1.0     0.420510      0.167393      0.990790     Biso  1.000000 H
   H688       1.0     0.403451      0.898834      0.900909     Biso  1.000000 H
   H689       1.0     0.345967      0.920942      0.977687     Biso  1.000000 H
   H690       1.0     0.364299      0.968402      0.043569     Biso  1.000000 H
   H691       1.0     0.492225      0.970600      0.964631     Biso  1.000000 H
   H692       1.0     0.473235      0.920542      0.903301     Biso  1.000000 H
   H693       1.0     0.475283      0.068593      0.882440     Biso  1.000000 H
   H694       1.0     0.615986      0.022885      0.297110     Biso  1.000000 H
   H695       1.0     0.524867      0.961946      0.191730     Biso  1.000000 H
   H696       1.0     0.506916      0.065984      0.210629     Biso  1.000000 H
   H697       1.0     0.566962      0.070307      0.280357     Biso  1.000000 H
   H698       1.0     0.358236      0.912895      0.411387     Biso  1.000000 H
   H699       1.0     0.328981      0.925657      0.309791     Biso  1.000000 H
   H700       1.0     0.357303      0.969823      0.244288     Biso  1.000000 H
   H701       1.0     0.442922      0.997422      0.388064     Biso  1.000000 H
   H702       1.0     0.593878      0.968210      0.254873     Biso  1.000000 H
   H703       1.0     0.591823      0.003044      0.735059     Biso  1.000000 H
   H704       1.0     0.506446      0.123481      0.859020     Biso  1.000000 H
   H705       1.0     0.258446      0.048337      0.030699     Biso  1.000000 H
   H706       1.0     0.513138      0.914500      0.622434     Biso  1.000000 H
   H707       1.0     0.585003      0.902974      0.672170     Biso  1.000000 H
   H708       1.0     0.294876      0.929876      0.500079     Biso  1.000000 H
   H709       1.0     0.329058      0.979842      0.472851     Biso  1.000000 H
   H710       1.0     0.373698      0.009192      0.542838     Biso  1.000000 H
   H711       1.0     0.357677      0.930786      0.674668     Biso  1.000000 H
   H712       1.0     0.306978      0.903142      0.612732     Biso  1.000000 H
   H713       1.0     0.474711      0.172720      0.913711     Biso  1.000000 H
   H714       1.0     0.410427      0.149729      0.658114     Biso  1.000000 H
   H715       1.0     0.330851      0.060036      0.670897     Biso  1.000000 H
   H716       1.0     0.436358      0.082380      0.798185     Biso  1.000000 H
   H717       1.0     0.442248      0.137207      0.757197     Biso  1.000000 H
   H718       1.0     0.248769      0.109398      0.028174     Biso  1.000000 H
   H719       1.0     0.294297      0.144136      0.954365     Biso  1.000000 H
   H720       1.0     0.344989      0.114100      0.880214     Biso  1.000000 H
   H721       1.0     0.307349      0.020446      0.960810     Biso  1.000000 H
   H722       1.0     0.347063      0.116317      0.622693     Biso  1.000000 H
   H723       1.0     0.693882      0.180325      0.235798     Biso  1.000000 H
   H724       1.0     0.652985      0.141978      0.173375     Biso  1.000000 H
   H725       1.0     0.467984      0.164057      0.413913     Biso  1.000000 H
   H726       1.0     0.095868      0.395133      0.743595     Biso  1.000000 H
   H727       1.0     0.213378      0.367521      0.648375     Biso  1.000000 H
   H728       1.0     0.250437      0.407606      0.714554     Biso  1.000000 H
   H729       1.0     0.041599      0.392963      0.340294     Biso  1.000000 H
   H730       1.0     0.016448      0.334827      0.382836     Biso  1.000000 H
   H731       1.0     0.034099      0.319713      0.488424     Biso  1.000000 H
   H732       1.0     0.096948      0.410312      0.513047     Biso  1.000000 H
   H733       1.0     0.131728      0.440019      0.793812     Biso  1.000000 H
   H734       1.0     0.077309      0.427201      0.410693     Biso  1.000000 H
   H735       1.0     0.961571      0.257000      0.623678     Biso  1.000000 H
   H736       1.0     0.004077      0.299048      0.687896     Biso  1.000000 H
   H737       1.0     0.949497      0.379203      0.583839     Biso  1.000000 H
   H738       1.0     0.911115      0.338391      0.513403     Biso  1.000000 H
   H739       1.0     0.125551      0.367349      0.907460     Biso  1.000000 H
   H740       1.0     0.088620      0.422074      0.901645     Biso  1.000000 H
   H741       1.0     0.024342      0.426967      0.830113     Biso  1.000000 H
   H742       1.0     0.915231      0.277665      0.537457     Biso  1.000000 H
   H743       1.0     0.032351      0.323331      0.791189     Biso  1.000000 H
   H744       1.0     0.213660      0.443859      0.781890     Biso  1.000000 H
   H745       1.0     0.180391      0.279887      0.573989     Biso  1.000000 H
   H746       1.0     0.114512      0.088429      0.577024     Biso  1.000000 H
   H747       1.0     0.110990      0.194711      0.575238     Biso  1.000000 H
   H748       1.0     0.157646      0.193071      0.473318     Biso  1.000000 H
   H749       1.0     0.303843      0.122265      0.784666     Biso  1.000000 H
   H750       1.0     0.239795      0.098747      0.825329     Biso  1.000000 H
   H751       1.0     0.168771      0.119508      0.794192     Biso  1.000000 H
   H752       1.0     0.230550      0.196586      0.690514     Biso  1.000000 H
   H753       1.0     0.170168      0.256408      0.465990     Biso  1.000000 H
   H754       1.0     0.301679      0.174175      0.713564     Biso  1.000000 H
   H755       1.0     0.962603      0.242530      0.714091     Biso  1.000000 H
   H756       1.0     0.029928      0.216841      0.676186     Biso  1.000000 H
   H757       1.0     0.093746      0.242594      0.844196     Biso  1.000000 H
   H758       1.0     0.026825      0.264223      0.887538     Biso  1.000000 H
   H759       1.0     0.105938      0.238350      0.434686     Biso  1.000000 H
   H760       1.0     0.043152      0.235691      0.509193     Biso  1.000000 H
   H761       1.0     0.051650      0.257446      0.615610     Biso  1.000000 H
   H762       1.0     0.957423      0.264753      0.832690     Biso  1.000000 H
   H763       1.0     0.096721      0.320778      0.858298     Biso  1.000000 H
   H764       1.0     0.781157      0.479732      0.743697     Biso  1.000000 H
   H765       1.0     0.817298      0.477414      0.851677     Biso  1.000000 H
   H766       1.0     0.741113      0.186620      0.526533     Biso  1.000000 H
   H767       1.0     0.755494      0.126023      0.488272     Biso  1.000000 H
   H768       1.0     0.622420      0.270871      0.912304     Biso  1.000000 H
   H769       1.0     0.671782      0.307208      0.851747     Biso  1.000000 H
   H770       1.0     0.690817      0.290535      0.745400     Biso  1.000000 H
   H771       1.0     0.632138      0.196803      0.767357     Biso  1.000000 H
   H772       1.0     0.606527      0.216047      0.873973     Biso  1.000000 H
   H773       1.0     0.780246      0.159963      0.710816     Biso  1.000000 H
   H774       1.0     0.681846      0.367174      0.533025     Biso  1.000000 H
   H775       1.0     0.720493      0.262568      0.526261     Biso  1.000000 H
   H776       1.0     0.591180      0.294464      0.576737     Biso  1.000000 H
   H777       1.0     0.609489      0.352178      0.571828     Biso  1.000000 H
   H778       1.0     0.432702      0.141724      0.514083     Biso  1.000000 H
   H779       1.0     0.474497      0.148582      0.608101     Biso  1.000000 H
   H780       1.0     0.546352      0.174734      0.605278     Biso  1.000000 H
   H781       1.0     0.535474      0.186226      0.409064     Biso  1.000000 H
   H782       1.0     0.737252      0.322990      0.506181     Biso  1.000000 H
   H783       1.0     0.803646      0.106288      0.671351     Biso  1.000000 H
   H784       1.0     0.794228      0.089714      0.564402     Biso  1.000000 H
   H785       1.0     0.885459      0.177301      0.523313     Biso  1.000000 H
   H786       1.0     0.867310      0.430454      0.874746     Biso  1.000000 H
   H787       1.0     0.859451      0.401360      0.681229     Biso  1.000000 H
   H788       1.0     0.800888      0.444564      0.670712     Biso  1.000000 H
   H789       1.0     0.791313      0.241040      0.959172     Biso  1.000000 H
   H790       1.0     0.742708      0.289978      0.930353     Biso  1.000000 H
   H791       1.0     0.767188      0.333126      0.851770     Biso  1.000000 H
   H792       1.0     0.890253      0.286104      0.858321     Biso  1.000000 H
   H793       1.0     0.859346      0.239183      0.919929     Biso  1.000000 H
   H794       1.0     0.736364      0.408901      0.600791     Biso  1.000000 H
   H795       1.0     0.704725      0.377551      0.681414     Biso  1.000000 H
   H796       1.0     0.743369      0.331367      0.730155     Biso  1.000000 H
   H797       1.0     0.844789      0.341865      0.592833     Biso  1.000000 H
   H798       1.0     0.803710      0.386786      0.551101     Biso  1.000000 H
   H799       1.0     0.861733      0.192665      0.419159     Biso  1.000000 H
   H800       1.0     0.812163      0.241472      0.407061     Biso  1.000000 H
   H801       1.0     0.788005      0.270531      0.496687     Biso  1.000000 H
   H802       1.0     0.863133      0.206235      0.613745     Biso  1.000000 H
   H803       1.0     0.414943      0.953222      0.455552     Biso  1.000000 H
   H804       1.0     0.149849      0.086025      0.477441     Biso  1.000000 H
   H805       1.0     0.386436      0.071128      0.526788     Biso  1.000000 H
   H806       1.0     0.332490      0.049629      0.345448     Biso  1.000000 H
   H807       1.0     0.679127      0.918658      0.729836     Biso  1.000000 H
   H808       1.0     0.483299      0.867622      0.856794     Biso  1.000000 H
   H809       1.0     0.498220      0.808305      0.851492     Biso  1.000000 H
   H810       1.0     0.577579      0.787824      0.843595     Biso  1.000000 H
   H811       1.0     0.619959      0.887564      0.860403     Biso  1.000000 H
   H812       1.0     0.543083      0.905502      0.876078     Biso  1.000000 H
   H813       1.0     0.759278      0.908696      0.075203     Biso  1.000000 H
   H814       1.0     0.630978      0.868909      0.738858     Biso  1.000000 H
   H815       1.0     0.701443      0.874472      0.104096     Biso  1.000000 H
   H816       1.0     0.769383      0.860505      0.894353     Biso  1.000000 H
   H817       1.0     0.796592      0.905075      0.976286     Biso  1.000000 H
   H818       1.0     0.835946      0.660524      0.034085     Biso  1.000000 H
   H819       1.0     0.875939      0.715780      0.040000     Biso  1.000000 H
   H820       1.0     0.852679      0.762696      0.990397     Biso  1.000000 H
   H821       1.0     0.736188      0.709045      0.923973     Biso  1.000000 H
   H822       1.0     0.766242      0.661755      0.971900     Biso  1.000000 H
   H823       1.0     0.682012      0.825362      0.036825     Biso  1.000000 H
   H824       1.0     0.798590      0.691438      0.620518     Biso  1.000000 H
   H825       1.0     0.731628      0.809567      0.680673     Biso  1.000000 H
   H826       1.0     0.745677      0.916828      0.661940     Biso  1.000000 H
   H827       1.0     0.446652      0.892331      0.449246     Biso  1.000000 H
   H828       1.0     0.693351      0.884018      0.531243     Biso  1.000000 H
   H829       1.0     0.696608      0.829751      0.468497     Biso  1.000000 H
   H830       1.0     0.631697      0.791891      0.478079     Biso  1.000000 H
   H831       1.0     0.567368      0.861062      0.589252     Biso  1.000000 H
   H832       1.0     0.628626      0.898925      0.579735     Biso  1.000000 H
   H833       1.0     0.413502      0.830585      0.729850     Biso  1.000000 H
   H834       1.0     0.777798      0.856727      0.645308     Biso  1.000000 H
   H835       1.0     0.417995      0.771768      0.695576     Biso  1.000000 H
   H836       1.0     0.545477      0.843046      0.687271     Biso  1.000000 H
   H837       1.0     0.475402      0.867575      0.719787     Biso  1.000000 H
   H838       1.0     0.690334      0.651220      0.841175     Biso  1.000000 H
   H839       1.0     0.611365      0.657790      0.839472     Biso  1.000000 H
   H840       1.0     0.582721      0.700582      0.771216     Biso  1.000000 H
   H841       1.0     0.711449      0.722155      0.703492     Biso  1.000000 H
   H842       1.0     0.738825      0.681648      0.772632     Biso  1.000000 H
   H843       1.0     0.484382      0.748677      0.661612     Biso  1.000000 H
   H844       1.0     0.497756      0.848345      0.415143     Biso  1.000000 H
   H845       1.0     0.825112      0.661543      0.711204     Biso  1.000000 H
   H846       1.0     0.798405      0.782604      0.722512     Biso  1.000000 H
   H847       1.0     0.030433      0.954543      0.527607     Biso  1.000000 H
   H848       1.0     0.841897      0.009367      0.681076     Biso  1.000000 H
   H849       1.0     0.814815      0.952250      0.704760     Biso  1.000000 H
   H850       1.0     0.828468      0.908530      0.631497     Biso  1.000000 H
   H851       1.0     0.878476      0.979497      0.503234     Biso  1.000000 H
   H852       1.0     0.872011      0.022286      0.576741     Biso  1.000000 H
   H853       1.0     0.908443      0.809893      0.312401     Biso  1.000000 H
   H854       1.0     0.967167      0.936468      0.587739     Biso  1.000000 H
   H855       1.0     0.830027      0.806009      0.342608     Biso  1.000000 H
   H856       1.0     0.901151      0.916150      0.352675     Biso  1.000000 H
   H857       1.0     0.944477      0.864362      0.314811     Biso  1.000000 H
   H858       1.0     0.653982      0.983738      0.169007     Biso  1.000000 H
   H859       1.0     0.591369      0.407352      0.964044     Biso  1.000000 H
   H860       1.0     0.751372      0.910762      0.182746     Biso  1.000000 H
   H861       1.0     0.748850      0.992031      0.311036     Biso  1.000000 H
   H862       1.0     0.681054      0.013778      0.267324     Biso  1.000000 H
   H863       1.0     0.790514      0.859025      0.375882     Biso  1.000000 H
   H864       1.0     0.838522      0.689495      0.808062     Biso  1.000000 H
   H865       1.0     0.946730      0.859962      0.453341     Biso  1.000000 H
   H866       1.0     0.043095      0.933178      0.418817     Biso  1.000000 H
   H867       1.0     0.786321      0.753513      0.622776     Biso  1.000000 H
   H868       1.0     0.977426      0.789129      0.056851     Biso  1.000000 H
   H869       1.0     0.961322      0.736139      0.013912     Biso  1.000000 H
   H870       1.0     0.931022      0.728774      0.910088     Biso  1.000000 H
   H871       1.0     0.916241      0.833981      0.894867     Biso  1.000000 H
   H872       1.0     0.944713      0.840681      0.007959     Biso  1.000000 H
   H873       1.0     0.009059      0.663745      0.695807     Biso  1.000000 H
   H874       1.0     0.000565      0.887809      0.379121     Biso  1.000000 H
   H875       1.0     0.934633      0.668470      0.683685     Biso  1.000000 H
   H876       1.0     0.021868      0.769934      0.718973     Biso  1.000000 H
   H877       1.0     0.057042      0.716769      0.718524     Biso  1.000000 H
   H878       1.0     0.860119      0.922177      0.815659     Biso  1.000000 H
   H879       1.0     0.940610      0.924180      0.775001     Biso  1.000000 H
   H880       1.0     0.964435      0.884430      0.700295     Biso  1.000000 H
   H881       1.0     0.839065      0.838977      0.701595     Biso  1.000000 H
   H882       1.0     0.817094      0.878837      0.778568     Biso  1.000000 H
   H883       1.0     0.897638      0.722446      0.688428     Biso  1.000000 H
   H884       1.0     0.436358      0.785260      0.554520     Biso  1.000000 H
   H885       1.0     0.395483      0.831285      0.593476     Biso  1.000000 H
   H886       1.0     0.394991      0.881478      0.534380     Biso  1.000000 H
   H887       1.0     0.170628      0.256144      0.363654     Biso  1.000000 H
   H888       1.0     0.109709      0.285616      0.302629     Biso  1.000000 H
   H889       1.0     0.256819      0.388475      0.577819     Biso  1.000000 H
   H890       1.0     0.323082      0.362469      0.544439     Biso  1.000000 H
   H891       1.0     0.319384      0.320159      0.460688     Biso  1.000000 H
   H892       1.0     0.187492      0.352479      0.416638     Biso  1.000000 H
   H893       1.0     0.190525      0.382727      0.514532     Biso  1.000000 H
   H894       1.0     0.252643      0.264869      0.202917     Biso  1.000000 H
   H895       1.0     0.441190      0.411996      0.314524     Biso  1.000000 H
   H896       1.0     0.318352      0.392278      0.401625     Biso  1.000000 H
   H897       1.0     0.343765      0.359758      0.221071     Biso  1.000000 H
   H898       1.0     0.410970      0.380798      0.216917     Biso  1.000000 H
   H899       1.0     0.274355      0.439731      0.981162     Biso  1.000000 H
   H900       1.0     0.240287      0.380544      0.002861     Biso  1.000000 H
   H901       1.0     0.226593      0.365171      0.109669     Biso  1.000000 H
   H902       1.0     0.280501      0.459407      0.168987     Biso  1.000000 H
   H903       1.0     0.392447      0.424400      0.399917     Biso  1.000000 H
   H904       1.0     0.291354      0.475093      0.067451     Biso  1.000000 H
   H905       1.0     0.198051      0.293951      0.147909     Biso  1.000000 H
   H906       1.0     0.149580      0.110164      0.321820     Biso  1.000000 H
   H907       1.0     0.457166      0.085056      0.356154     Biso  1.000000 H
   H908       1.0     0.457074      0.083500      0.473374     Biso  1.000000 H
   H909       1.0     0.548452      0.159455      0.185106     Biso  1.000000 H
   H910       1.0     0.499048      0.153029      0.108675     Biso  1.000000 H
   H911       1.0     0.425083      0.136319      0.126011     Biso  1.000000 H
   H912       1.0     0.447144      0.140982      0.322130     Biso  1.000000 H
   H913       1.0     0.523962      0.153011      0.299316     Biso  1.000000 H
   H914       1.0     0.121150      0.297859      0.190707     Biso  1.000000 H
   H915       1.0     0.204504      0.202445      0.028620     Biso  1.000000 H
   H916       1.0     0.310957      0.223689      0.150998     Biso  1.000000 H
   H917       1.0     0.234257      0.135419      0.173262     Biso  1.000000 H
   H918       1.0     0.189186      0.149071      0.084544     Biso  1.000000 H
   H919       1.0     0.197965      0.068055      0.378330     Biso  1.000000 H
   H920       1.0     0.267180      0.085749      0.407468     Biso  1.000000 H
   H921       1.0     0.298122      0.139702      0.380139     Biso  1.000000 H
   H922       1.0     0.179934      0.157019      0.274296     Biso  1.000000 H
   H923       1.0     0.267126      0.240298      0.062656     Biso  1.000000 H
   H924       1.0     0.040698      0.492824      0.235761     Biso  1.000000 H
   H925       1.0     0.101074      0.518601      0.180991     Biso  1.000000 H
   H926       1.0     0.173961      0.496082      0.193723     Biso  1.000000 H
   H927       1.0     0.429676      0.479199      0.477769     Biso  1.000000 H
   H928       1.0     0.215053      0.656601      0.568136     Biso  1.000000 H
   H929       1.0     0.216603      0.648261      0.455302     Biso  1.000000 H
   H930       1.0     0.284010      0.636498      0.406182     Biso  1.000000 H
   H931       1.0     0.347977      0.653304      0.575391     Biso  1.000000 H
   H932       1.0     0.284240      0.661863      0.628990     Biso  1.000000 H
   H933       1.0     0.269370      0.785348      0.481558     Biso  1.000000 H
   H934       1.0     0.400284      0.521158      0.408611     Biso  1.000000 H
   H935       1.0     0.265483      0.747855      0.399200     Biso  1.000000 H
   H936       1.0     0.387663      0.738492      0.538609     Biso  1.000000 H
   H937       1.0     0.333337      0.787114      0.550337     Biso  1.000000 H
   H938       1.0     0.385503      0.752203      0.165765     Biso  1.000000 H
   H939       1.0     0.342420      0.778451      0.252241     Biso  1.000000 H
   H940       1.0     0.368165      0.775990      0.358852     Biso  1.000000 H
   H941       1.0     0.488380      0.735560      0.302402     Biso  1.000000 H
   H942       1.0     0.458563      0.732147      0.186865     Biso  1.000000 H
   H943       1.0     0.327649      0.704081      0.377358     Biso  1.000000 H
   H944       1.0     0.340320      0.567285      0.564907     Biso  1.000000 H
   H945       1.0     0.347396      0.514152      0.628509     Biso  1.000000 H
   H946       1.0     0.395688      0.471007      0.582261     Biso  1.000000 H
   H947       1.0     0.117085      0.424185      0.317092     Biso  1.000000 H
   H948       1.0     0.048211      0.445326      0.297845     Biso  1.000000 H
   H949       1.0     0.228146      0.454145      0.615933     Biso  1.000000 H
   H950       1.0     0.288749      0.472112      0.549852     Biso  1.000000 H
   H951       1.0     0.286176      0.476504      0.440428     Biso  1.000000 H
   H952       1.0     0.149852      0.455684      0.451763     Biso  1.000000 H
   H953       1.0     0.156777      0.451955      0.568710     Biso  1.000000 H
   H954       1.0     0.082126      0.590182      0.361905     Biso  1.000000 H
   H955       1.0     0.109766      0.563931      0.263220     Biso  1.000000 H
   H956       1.0     0.188857      0.541949      0.266028     Biso  1.000000 H
   H957       1.0     0.200499      0.569445      0.452517     Biso  1.000000 H
   H958       1.0     0.134857      0.597052      0.456510     Biso  1.000000 H
   H959       1.0     0.400824      0.490923      0.134675     Biso  1.000000 H
   H960       1.0     0.388938      0.551219      0.145861     Biso  1.000000 H
   H961       1.0     0.357453      0.574365      0.234313     Biso  1.000000 H
   H962       1.0     0.342049      0.481547      0.318804     Biso  1.000000 H
   H963       1.0     0.370933      0.454682      0.230223     Biso  1.000000 H
   H964       1.0     0.324804      0.051106      0.466494     Biso  1.000000 H
   H965       1.0     0.186310      0.138691      0.440854     Biso  1.000000 H
   H966       1.0     0.898639      0.196267      0.698546     Biso  1.000000 H
   H967       1.0     0.966614      0.194568      0.650295     Biso  1.000000 H
   H968       1.0     0.357718      0.647699      0.242192     Biso  1.000000 H
   H969       1.0     0.300813      0.607897      0.235826     Biso  1.000000 H
   H970       1.0     0.220882      0.628582      0.253161     Biso  1.000000 H
   H971       1.0     0.272179      0.727965      0.281046     Biso  1.000000 H
   H972       1.0     0.346619      0.706858      0.262470     Biso  1.000000 H
   H973       1.0     0.013840      0.633867      0.485186     Biso  1.000000 H
   H974       1.0     0.078936      0.646609      0.545202     Biso  1.000000 H
   H975       1.0     0.209451      0.709418      0.966912     Biso  1.000000 H
   H976       1.0     0.140875      0.672546      0.498519     Biso  1.000000 H
   H977       1.0     0.005684      0.656719      0.379995     Biso  1.000000 H
   H978       1.0     0.172638      0.734396      0.694646     Biso  1.000000 H
   H979       1.0     0.100655      0.744270      0.657027     Biso  1.000000 H
   H980       1.0     0.086437      0.741727      0.546174     Biso  1.000000 H
   H981       1.0     0.221007      0.738388      0.506796     Biso  1.000000 H
   H982       1.0     0.234580      0.726303      0.620426     Biso  1.000000 H
   H983       1.0     0.961344      0.791324      0.396970     Biso  1.000000 H
   H984       1.0     0.064881      0.684780      0.325281     Biso  1.000000 H
   H985       1.0     0.996154      0.753586      0.329158     Biso  1.000000 H
   H986       1.0     0.225855      0.696240      0.071736     Biso  1.000000 H
   H987       1.0     0.081113      0.729851      0.016024     Biso  1.000000 H
   H988       1.0     0.915797      0.670398      0.821429     Biso  1.000000 H
   H989       1.0     0.884718      0.642237      0.920433     Biso  1.000000 H
   H990       1.0     0.926001      0.634930      0.007785     Biso  1.000000 H
   H991       1.0     0.035550      0.681739      0.920938     Biso  1.000000 H
   H992       1.0     0.988736      0.694358      0.823895     Biso  1.000000 H
   H993       1.0     0.991775      0.523301      0.162841     Biso  1.000000 H
   H994       1.0     0.004953      0.575339      0.234882     Biso  1.000000 H
   H995       1.0     0.099930      0.708727      0.127496     Biso  1.000000 H
   H996       1.0     0.043347      0.624178      0.189212     Biso  1.000000 H
   H997       1.0     0.017410      0.524147      0.056467     Biso  1.000000 H
   H998       1.0     0.309193      0.570473      0.104551     Biso  1.000000 H
   H999       1.0     0.253748      0.544718      0.171275     Biso  1.000000 H
   H1000      1.0     0.185431      0.562195      0.175073     Biso  1.000000 H
   H1001      1.0     0.212455      0.641748      0.044597     Biso  1.000000 H
   H1002      1.0     0.285048      0.615897      0.026823     Biso  1.000000 H
   H1003      1.0     0.134672      0.731099      0.936534     Biso  1.000000 H
   H1004      1.0     0.058905      0.567855      0.019260     Biso  1.000000 H
   H1005      1.0     0.030107      0.778165      0.218245     Biso  1.000000 H
   H1006      1.0     0.075855      0.756062      0.314043     Biso  1.000000 H
   H1007      1.0     0.005410      0.832787      0.462756     Biso  1.000000 H
   H1008      1.0     0.317470      0.859679      0.133947     Biso  1.000000 H
   H1009      1.0     0.245602      0.844024      0.163499     Biso  1.000000 H
   H1010      1.0     0.186249      0.878674      0.169242     Biso  1.000000 H
   H1011      1.0     0.274067      0.958810      0.105925     Biso  1.000000 H
   H1012      1.0     0.330151      0.915830      0.100754     Biso  1.000000 H
   H1013      1.0     0.175700      0.062541      0.962859     Biso  1.000000 H
   H1014      1.0     0.179531      0.006045      0.916959     Biso  1.000000 H
   H1015      1.0     0.212011      0.084797      0.172057     Biso  1.000000 H
   H1016      1.0     0.157407      0.958847      0.982985     Biso  1.000000 H
   H1017      1.0     0.137353      0.070553      0.060435     Biso  1.000000 H
   H1018      1.0     0.068991      0.868120      0.306441     Biso  1.000000 H
   H1019      1.0     0.057681      0.843287      0.209616     Biso  1.000000 H
   H1020      1.0     0.037528      0.881979      0.117260     Biso  1.000000 H
   H1021      1.0     0.058026      0.965756      0.225439     Biso  1.000000 H
   H1022      1.0     0.067233      0.927901      0.322991     Biso  1.000000 H
   H1023      1.0     0.820076      0.875244      0.113173     Biso  1.000000 H
   H1024      1.0     0.113841      0.028007      0.123836     Biso  1.000000 H
   H1025      1.0     0.076511      0.837500      0.450898     Biso  1.000000 H
   H1026      1.0     0.185914      0.037570      0.231116     Biso  1.000000 H
   H1027      1.0     0.332244      0.034582      0.140299     Biso  1.000000 H
   H1028      1.0     0.207763      0.768252      0.118887     Biso  1.000000 H
   H1029      1.0     0.263767      0.770545      0.197249     Biso  1.000000 H
   H1030      1.0     0.255135      0.804892      0.291063     Biso  1.000000 H
   H1031      1.0     0.128593      0.833078      0.233091     Biso  1.000000 H
   H1032      1.0     0.134473      0.792416      0.145806     Biso  1.000000 H
   H1033      1.0     0.370377      0.821091      0.426715     Biso  1.000000 H
   H1034      1.0     0.349390      0.833981      0.319442     Biso  1.000000 H
   H1035      1.0     0.304466      0.985423      0.192832     Biso  1.000000 H
   H1036      1.0     0.286023      0.871136      0.293876     Biso  1.000000 H
   H1037      1.0     0.319800      0.840454      0.516253     Biso  1.000000 H
   H1038      1.0     0.168608      0.983220      0.598172     Biso  1.000000 H
   H1039      1.0     0.109517      0.960664      0.530637     Biso  1.000000 H
   H1040      1.0     0.129044      0.945713      0.419492     Biso  1.000000 H
   H1041      1.0     0.256800      0.981016      0.440395     Biso  1.000000 H
   H1042      1.0     0.241058      0.994007      0.551420     Biso  1.000000 H
   H1043      1.0     0.287007      0.086816      0.126332     Biso  1.000000 H
   H1044      1.0     0.251150      0.866887      0.489488     Biso  1.000000 H
   H1045      1.0     0.028573      0.722483      0.172913     Biso  1.000000 H
   H1046      1.0     0.894714      0.739663      0.126558     Biso  1.000000 H
   H1047      1.0     0.893481      0.788332      0.193950     Biso  1.000000 H
   H1048      1.0     0.350688      0.364954      0.031660     Biso  1.000000 H
   H1049      1.0     0.574488      0.193454      0.076112     Biso  1.000000 H
   H1050      1.0     0.513534      0.217268      0.135883     Biso  1.000000 H
   H1051      1.0     0.462462      0.248963      0.083099     Biso  1.000000 H
   H1052      1.0     0.522790      0.230059      0.908307     Biso  1.000000 H
   H1053      1.0     0.578167      0.198225      0.969882     Biso  1.000000 H
   H1054      1.0     0.541891      0.357759      0.680525     Biso  1.000000 H
   H1055      1.0     0.370163      0.331843      0.953079     Biso  1.000000 H
   H1056      1.0     0.577128      0.308981      0.723030     Biso  1.000000 H
   H1057      1.0     0.465338      0.367497      0.845686     Biso  1.000000 H
   H1058      1.0     0.486967      0.388386      0.745580     Biso  1.000000 H
   H1059      1.0     0.708781      0.291729      0.080914     Biso  1.000000 H
   H1060      1.0     0.712862      0.329735      0.999969     Biso  1.000000 H
   H1061      1.0     0.646794      0.346373      0.942044     Biso  1.000000 H
   H1062      1.0     0.569436      0.294069      0.073299     Biso  1.000000 H
   H1063      1.0     0.635257      0.271574      0.122984     Biso  1.000000 H
   H1064      1.0     0.554099      0.286905      0.826990     Biso  1.000000 H
   H1065      1.0     0.379086      0.444806      0.078456     Biso  1.000000 H
   H1066      1.0     0.342378      0.242983      0.054852     Biso  1.000000 H
   H1067      1.0     0.324756      0.341493      0.127972     Biso  1.000000 H
   H1068      1.0     0.422958      0.191219      0.810871     Biso  1.000000 H
   H1069      1.0     0.367613      0.434464      0.686401     Biso  1.000000 H
   H1070      1.0     0.423610      0.405042      0.739117     Biso  1.000000 H
   H1071      1.0     0.424754      0.343786      0.733394     Biso  1.000000 H
   H1072      1.0     0.300184      0.344188      0.646645     Biso  1.000000 H
   H1073      1.0     0.304789      0.407217      0.638655     Biso  1.000000 H
   H1074      1.0     0.272383      0.409966      0.894196     Biso  1.000000 H
   H1075      1.0     0.322197      0.274541      0.137667     Biso  1.000000 H
   H1076      1.0     0.349825      0.393624      0.886960     Biso  1.000000 H
   H1077      1.0     0.232991      0.317286      0.812694     Biso  1.000000 H
   H1078      1.0     0.216079      0.371923      0.865173     Biso  1.000000 H
   H1079      1.0     0.134524      0.204109      0.931912     Biso  1.000000 H
   H1080      1.0     0.148899      0.263949      0.950141     Biso  1.000000 H
   H1081      1.0     0.215878      0.289024      0.941674     Biso  1.000000 H
   H1082      1.0     0.270718      0.195542      0.879317     Biso  1.000000 H
   H1083      1.0     0.196827      0.169886      0.892757     Biso  1.000000 H
   H1084      1.0     0.364567      0.341503      0.823270     Biso  1.000000 H
   H1085      1.0     0.383691      0.420592      0.971307     Biso  1.000000 H
   H1086      1.0     0.449416      0.399811      0.931195     Biso  1.000000 H
   H1087      1.0     0.506785      0.415083      0.112311     Biso  1.000000 H
   H1088      1.0     0.718049      0.652367      0.349316     Biso  1.000000 H
   H1089      1.0     0.707429      0.583849      0.336935     Biso  1.000000 H
   H1090      1.0     0.774270      0.554042      0.316814     Biso  1.000000 H
   H1091      1.0     0.855533      0.636160      0.342029     Biso  1.000000 H
   H1092      1.0     0.789546      0.672588      0.363270     Biso  1.000000 H
   H1093      1.0     0.814767      0.589427      0.962489     Biso  1.000000 H
   H1094      1.0     0.760729      0.612038      0.043414     Biso  1.000000 H
   H1095      1.0     0.823092      0.499411      0.601022     Biso  1.000000 H
   H1096      1.0     0.778907      0.613685      0.147586     Biso  1.000000 H
   H1097      1.0     0.879106      0.568271      0.994181     Biso  1.000000 H
   H1098      1.0     0.819842      0.743683      0.310795     Biso  1.000000 H
   H1099      1.0     0.887367      0.720572      0.355224     Biso  1.000000 H
   H1100      1.0     0.927002      0.680504      0.286741     Biso  1.000000 H
   H1101      1.0     0.831031      0.682188      0.149870     Biso  1.000000 H
   H1102      1.0     0.791339      0.724283      0.218004     Biso  1.000000 H
   H1103      1.0     0.961731      0.809811      0.238912     Biso  1.000000 H
   H1104      1.0     0.905478      0.571541      0.102778     Biso  1.000000 H
   H1105      1.0     0.839263      0.547515      0.531521     Biso  1.000000 H
   H1106      1.0     0.865092      0.472938      0.389693     Biso  1.000000 H
   H1107      1.0     0.838212      0.429561      0.460864     Biso  1.000000 H
   H1108      1.0     0.439286      0.441035      0.144751     Biso  1.000000 H
   H1109      1.0     0.243375      0.584086      0.588512     Biso  1.000000 H
   H1110      1.0     0.214714      0.527910      0.560317     Biso  1.000000 H
   H1111      1.0     0.140203      0.515067      0.577852     Biso  1.000000 H
   H1112      1.0     0.117165      0.610741      0.639182     Biso  1.000000 H
   H1113      1.0     0.189870      0.623483      0.642763     Biso  1.000000 H
   H1114      1.0     0.931700      0.464093      0.703418     Biso  1.000000 H
   H1115      1.0     0.957429      0.447124      0.600073     Biso  1.000000 H
   H1116      1.0     0.989133      0.490175      0.527917     Biso  1.000000 H
   H1117      1.0     0.957263      0.564291      0.667210     Biso  1.000000 H
   H1118      1.0     0.935905      0.520458      0.738386     Biso  1.000000 H
   H1119      1.0     0.881461      0.672526      0.582747     Biso  1.000000 H
   H1120      1.0     0.905235      0.673572      0.478505     Biso  1.000000 H
   H1121      1.0     0.930316      0.619993      0.428283     Biso  1.000000 H
   H1122      1.0     0.893995      0.566486      0.586925     Biso  1.000000 H
   H1123      1.0     0.872276      0.620235      0.641792     Biso  1.000000 H
   H1124      1.0     0.822508      0.444737      0.566753     Biso  1.000000 H
   H1125      1.0     0.854367      0.890679      0.018481     Biso  1.000000 H
   H1126      1.0     0.917069      0.926631      0.015168     Biso  1.000000 H
   H1127      1.0     0.904490      0.938635      0.214048     Biso  1.000000 H
   H1128      1.0     0.847457      0.895939      0.215876     Biso  1.000000 H
   H1129      1.0     0.139667      0.375102      0.157012     Biso  1.000000 H
   H1130      1.0     0.074676      0.373280      0.215071     Biso  1.000000 H
   H1131      1.0     0.010724      0.423783      0.059453     Biso  1.000000 H
   H1132      1.0     0.079217      0.422508      0.001616     Biso  1.000000 H
   H1133      1.0     0.785596      0.314707      0.072315     Biso  1.000000 H
   H1134      1.0     0.859212      0.297201      0.018068     Biso  1.000000 H
   H1135      1.0     0.923930      0.309800      0.065617     Biso  1.000000 H
   H1136      1.0     0.146371      0.399192      0.061455     Biso  1.000000 H
   H1137      1.0     0.857039      0.359009      0.212933     Biso  1.000000 H
   H1138      1.0     0.877316      0.317790      0.439317     Biso  1.000000 H
   H1139      1.0     0.954789      0.315580      0.430527     Biso  1.000000 H
   H1140      1.0     0.989969      0.297943      0.343246     Biso  1.000000 H
   H1141      1.0     0.869061      0.286563      0.249613     Biso  1.000000 H
   H1142      1.0     0.835153      0.301213      0.355951     Biso  1.000000 H
   H1143      1.0     0.120584      0.146624      0.212910     Biso  1.000000 H
   H1144      1.0     0.045377      0.142003      0.245042     Biso  1.000000 H
   H1145      1.0     0.790581      0.349036      0.160835     Biso  1.000000 H
   H1146      1.0     0.995897      0.190576      0.227303     Biso  1.000000 H
   H1147      1.0     0.987134      0.491389      0.393801     Biso  1.000000 H
   H1148      1.0     0.924324      0.385831      0.308667     Biso  1.000000 H
   H1149      1.0     0.668679      0.388813      0.895237     Biso  1.000000 H
   H1150      1.0     0.672233      0.417197      0.994158     Biso  1.000000 H
   H1151      1.0     0.811313      0.421951      0.960648     Biso  1.000000 H
   H1152      1.0     0.802217      0.396024      0.865539     Biso  1.000000 H
   H1153      1.0     0.662511      0.549564      0.225369     Biso  1.000000 H
   H1154      1.0     0.662815      0.489773      0.249395     Biso  1.000000 H
   H1155      1.0     0.720116      0.452049      0.194741     Biso  1.000000 H
   H1156      1.0     0.959219      0.486866      0.282258     Biso  1.000000 H
   H1157      1.0     0.774385      0.538921      0.122439     Biso  1.000000 H
   H1158      1.0     0.944774      0.448845      0.929228     Biso  1.000000 H
   H1159      1.0     0.947842      0.499623      0.986640     Biso  1.000000 H
   H1160      1.0     0.904778      0.506757      0.081367     Biso  1.000000 H
   H1161      1.0     0.863497      0.403964      0.072810     Biso  1.000000 H
   H1162      1.0     0.905749      0.399885      0.971622     Biso  1.000000 H
   H1163      1.0     0.963386      0.446451      0.469039     Biso  1.000000 H
   H1164      1.0     0.930463      0.396275      0.432803     Biso  1.000000 H
   H1165      1.0     0.720966      0.573960      0.168047     Biso  1.000000 H
   H1166      1.0     0.094995      0.243287      0.138373     Biso  1.000000 H
   H1167      1.0     0.147004      0.198746      0.160186     Biso  1.000000 H
   H1168      1.0     0.007458      0.354876      0.946347     Biso  1.000000 H
   H1169      1.0     0.944422      0.179109      0.313201     Biso  1.000000 H
   H1170      1.0     0.818628      0.133254      0.295259     Biso  1.000000 H
   H1171      1.0     0.787357      0.187876      0.296744     Biso  1.000000 H
   H1172      1.0     0.789220      0.024145      0.406520     Biso  1.000000 H
   H1173      1.0     0.774781      0.082858      0.416883     Biso  1.000000 H
   H1174      1.0     0.836256      0.122901      0.434936     Biso  1.000000 H
   H1175      1.0     0.926561      0.042308      0.416846     Biso  1.000000 H
   H1176      1.0     0.913253      0.232306      0.306876     Biso  1.000000 H
   H1177      1.0     0.864108      0.005914      0.405192     Biso  1.000000 H
   H1178      1.0     0.981286      0.228542      0.377978     Biso  1.000000 H
   H1179      1.0     0.944259      0.184944      0.446068     Biso  1.000000 H
   H1180      1.0     0.063839      0.127907      0.437606     Biso  1.000000 H
   H1181      1.0     0.095609      0.170352      0.380786     Biso  1.000000 H
   H1182      1.0     0.859001      0.143187      0.717302     Biso  1.000000 H
   H1183      1.0     0.889780      0.092905      0.698194     Biso  1.000000 H
   H1184      1.0     0.958452      0.084237      0.644285     Biso  1.000000 H
   H1185      1.0     0.052711      0.221426      0.343783     Biso  1.000000 H
   H1186      1.0     0.830622      0.239699      0.296536     Biso  1.000000 H
   H1187      1.0     0.751151      0.074649      0.194763     Biso  1.000000 H
   H1188      1.0     0.803873      0.115343      0.194853     Biso  1.000000 H
   H1189      1.0     0.065709      0.335843      0.002785     Biso  1.000000 H
   H1190      1.0     0.070397      0.278790      0.052595     Biso  1.000000 H
   H1191      1.0     0.944330      0.260825      0.985534     Biso  1.000000 H
   H1192      1.0     0.944314      0.320507      0.936608     Biso  1.000000 H
   H1193      1.0     0.123783      0.117175      0.887904     Biso  1.000000 H
   H1194      1.0     0.136148      0.133214      0.002210     Biso  1.000000 H
   H1195      1.0     0.079905      0.162328      0.061619     Biso  1.000000 H
   H1196      1.0     0.994319      0.141771      0.911555     Biso  1.000000 H
   H1197      1.0     0.057284      0.120551      0.848180     Biso  1.000000 H
   H1198      1.0     0.804646      0.239847      0.076291     Biso  1.000000 H
   H1199      1.0     0.804307      0.195856      0.010041     Biso  1.000000 H
   H1200      1.0     0.871608      0.160903      0.002893     Biso  1.000000 H
   H1201      1.0     0.910716      0.199052      0.178970     Biso  1.000000 H
   H1202      1.0     0.856035      0.244313      0.161049     Biso  1.000000 H
   H1203      1.0     0.774966      0.014836      0.173947     Biso  1.000000 H
   H1204      1.0     0.854859      0.003436      0.155438     Biso  1.000000 H
   H1205      1.0     0.904410      0.046463      0.155029     Biso  1.000000 H
   H1206      1.0     0.730126      0.382927      0.829798     Biso  1.000000 H
   H1207      1.0     0.473551      0.265350      0.641144     Biso  1.000000 H
   H1208      1.0     0.958171      0.583067      0.773136     Biso  1.000000 H
   H1209      1.0     0.050302      0.535866      0.937071     Biso  1.000000 H
   H1210      1.0     0.952003      0.038202      0.564324     Biso  1.000000 H
   H1211      1.0     0.933039      0.008358      0.657554     Biso  1.000000 H
   H1212      1.0     0.986099      0.969228      0.712875     Biso  1.000000 H
   H1213      1.0     0.084433      0.009303      0.591218     Biso  1.000000 H
   H1214      1.0     0.032251      0.042931      0.535241     Biso  1.000000 H
   H1215      1.0     0.190177      0.847965      0.509781     Biso  1.000000 H
   H1216      1.0     0.220390      0.897349      0.575215     Biso  1.000000 H
   H1217      1.0     0.230607      0.007655      0.777041     Biso  1.000000 H
   H1218      1.0     0.179471      0.921896      0.654450     Biso  1.000000 H
   H1219      1.0     0.117647      0.826020      0.539705     Biso  1.000000 H
   H1220      1.0     0.052168      0.748995      0.882861     Biso  1.000000 H
   H1221      1.0     0.023054      0.806776      0.915159     Biso  1.000000 H
   H1222      1.0     0.058179      0.854340      0.861273     Biso  1.000000 H
   H1223      1.0     0.130635      0.793965      0.748897     Biso  1.000000 H
   H1224      1.0     0.104864      0.745454      0.791282     Biso  1.000000 H
   H1225      1.0     0.277660      0.980853      0.891249     Biso  1.000000 H
   H1226      1.0     0.076821      0.847780      0.622679     Biso  1.000000 H
   H1227      1.0     0.282888      0.963944      0.789116     Biso  1.000000 H
   H1228      1.0     0.157726      0.989514      0.819046     Biso  1.000000 H
   H1229      1.0     0.169500      0.066415      0.645877     Biso  1.000000 H
   H1230      1.0     0.043664      0.075155      0.300441     Biso  1.000000 H
   H1231      1.0     0.078441      0.083781      0.192535     Biso  1.000000 H
   H1232      1.0     0.048167      0.064206      0.102304     Biso  1.000000 H
   H1233      1.0     0.951360      0.012264      0.209667     Biso  1.000000 H
   H1234      1.0     0.980318      0.035879      0.300950     Biso  1.000000 H
   H1235      1.0     0.865664      0.101810      0.824450     Biso  1.000000 H
   H1236      1.0     0.936126      0.117328      0.820665     Biso  1.000000 H
   H1237      1.0     0.099041      0.049094      0.678999     Biso  1.000000 H
   H1238      1.0     0.996268      0.082681      0.878081     Biso  1.000000 H
   H1239      1.0     0.838512      0.056768      0.887001     Biso  1.000000 H
   H1240      1.0     0.998512      0.880169      0.926087     Biso  1.000000 H
   H1241      1.0     0.070333      0.903788      0.945486     Biso  1.000000 H
   H1242      1.0     0.088041      0.959895      0.923751     Biso  1.000000 H
   H1243      1.0     0.958088      0.975941      0.866774     Biso  1.000000 H
   H1244      1.0     0.938206      0.917995      0.889241     Biso  1.000000 H
   H1245      1.0     0.233554      0.043324      0.688048     Biso  1.000000 H
   H1246      1.0     0.895305      0.023398      0.950705     Biso  1.000000 H
   H1247      1.0     0.247111      0.912715      0.747917     Biso  1.000000 H
   H1248      1.0     0.190592      0.898701      0.931218     Biso  1.000000 H
   H1249      1.0     0.229348      0.952686      0.962471     Biso  1.000000 H
   H1250      1.0     0.388622      0.607725      0.692263     Biso  1.000000 H
   H1251      1.0     0.317403      0.600265      0.729975     Biso  1.000000 H
   H1252      1.0     0.362678      0.600051      0.918374     Biso  1.000000 H
   H1253      1.0     0.436323      0.600112      0.885766     Biso  1.000000 H
   H1254      1.0     0.313606      0.466132      0.674913     Biso  1.000000 H
   H1255      1.0     0.274531      0.521047      0.654811     Biso  1.000000 H
   H1256      1.0     0.246820      0.554082      0.740445     Biso  1.000000 H
   H1257      1.0     0.452120      0.605185      0.769213     Biso  1.000000 H
   H1258      1.0     0.274483      0.470144      0.864063     Biso  1.000000 H
   H1259      1.0     0.141552      0.473574      0.086504     Biso  1.000000 H
   H1260      1.0     0.170343      0.441595      0.990017     Biso  1.000000 H
   H1261      1.0     0.176358      0.470573      0.888366     Biso  1.000000 H
   H1262      1.0     0.123678      0.558565      0.959052     Biso  1.000000 H
   H1263      1.0     0.119811      0.533089      0.065202     Biso  1.000000 H
   H1264      1.0     0.937519      0.584549      0.889708     Biso  1.000000 H
   H1265      1.0     0.981024      0.561722      0.963303     Biso  1.000000 H
   H1266      1.0     0.313533      0.445235      0.787127     Biso  1.000000 H
   H1267      1.0     0.108811      0.650848      0.865974     Biso  1.000000 H
   H1268      1.0     0.186863      0.650118      0.912920     Biso  1.000000 H
   H1269      1.0     0.230387      0.662588      0.728670     Biso  1.000000 H
   H1270      1.0     0.279126      0.827922      0.578782     Biso  1.000000 H
   H1271      1.0     0.214797      0.801291      0.617344     Biso  1.000000 H
   H1272      1.0     0.200202      0.795358      0.731196     Biso  1.000000 H
   H1273      1.0     0.308943      0.856830      0.770670     Biso  1.000000 H
   H1274      1.0     0.328368      0.856710      0.655847     Biso  1.000000 H
   H1275      1.0     0.382163      0.853970      0.028217     Biso  1.000000 H
   H1276      1.0     0.306764      0.836027      0.043589     Biso  1.000000 H
   H1277      1.0     0.267970      0.802813      0.970091     Biso  1.000000 H
   H1278      1.0     0.373803      0.801723      0.847675     Biso  1.000000 H
   H1279      1.0     0.411523      0.841517      0.919179     Biso  1.000000 H
   H1280      1.0     0.376337      0.712833      0.647121     Biso  1.000000 H
   H1281      1.0     0.397222      0.680408      0.739505     Biso  1.000000 H
   H1282      1.0     0.347118      0.677732      0.829312     Biso  1.000000 H
   H1283      1.0     0.261274      0.744807      0.731612     Biso  1.000000 H
   H1284      1.0     0.308758      0.743772      0.644794     Biso  1.000000 H
   H1285      1.0     0.096849      0.656290      0.760422     Biso  1.000000 H
   H1286      1.0     0.160753      0.660258      0.688719     Biso  1.000000 H
   H1287      1.0     0.026336      0.554745      0.744266     Biso  1.000000 H
   H1288      1.0     0.750697      0.565603      0.888824     Biso  1.000000 H

# Number_of_total_atoms: 2568
# Number_of_atom_type: 2
# Name_of_each_atom:  C  H
# Number_of_each_atom: 1280 1288 
# Created_by: Lihua Chen (lihua.chen@mse.gatech.edu)
# Tool: VASP
# K-points: 1 1 1
# Pseudopotential: PBE-HSE06
# Material_class: MC_Pol
# Geometry_class: GC_PD
# Bandgap_(eV): 4.74

# Note: average bandgap of 5 configurations
# Note:  HSE06 Band gap is derived from PBE band gap, based on Eg (HSE06)=1.140*Eg (PBE) + 0.799, R2=0.97


