#======================================================================

# Note: Amorphous region of isotactic poly(methyl methacrylate)
# Common_name: Amorphous region
#----------------------------------------------------------------------

data_VESTA_phase_1


_chemical_name_common                  'C  H  O                               '
_cell_length_a                         30.94941
_cell_length_b                         28.90212
_cell_length_c                         26.55168
_cell_angle_alpha                      90
_cell_angle_beta                       90
_cell_angle_gamma                      90
_space_group_name_H-M_alt              'P 1'
_space_group_IT_number                 1

loop_
_space_group_symop_operation_xyz
   'x, y, z'

loop_
   _atom_site_label
   _atom_site_occupancy
   _atom_site_fract_x
   _atom_site_fract_y
   _atom_site_fract_z
   _atom_site_adp_type
   _atom_site_B_iso_or_equiv
   _atom_site_type_symbol
   C1         1.0     0.947658      0.508614      0.084198     Biso  1.000000 C
   C2         1.0     0.434605      0.366797      0.118192     Biso  1.000000 C
   C3         1.0     0.336864      0.323506      0.127208     Biso  1.000000 C
   C4         1.0     0.374697      0.315929      0.086619     Biso  1.000000 C
   C5         1.0     0.406740      0.288699      0.237002     Biso  1.000000 C
   C6         1.0     0.313895      0.371721      0.119826     Biso  1.000000 C
   C7         1.0     0.260469      0.274447      0.149101     Biso  1.000000 C
   C8         1.0     0.303907      0.283627      0.118158     Biso  1.000000 C
   C9         1.0     0.228607      0.287505      0.286501     Biso  1.000000 C
   C10        1.0     0.228080      0.311978      0.129980     Biso  1.000000 C
   C11        1.0     0.201418      0.198252      0.148111     Biso  1.000000 C
   C12        1.0     0.242853      0.227240      0.128315     Biso  1.000000 C
   C13        1.0     0.202477      0.147401      0.282912     Biso  1.000000 C
   C14        1.0     0.162977      0.232675      0.163247     Biso  1.000000 C
   C15        1.0     0.146421      0.141149      0.093926     Biso  1.000000 C
   C16        1.0     0.192361      0.163127      0.102016     Biso  1.000000 C
   C17        1.0     0.138382      0.060581      0.208566     Biso  1.000000 C
   C18        1.0     0.113665      0.178925      0.076401     Biso  1.000000 C
   C19        1.0     0.113316      0.076382      0.024416     Biso  1.000000 C
   C20        1.0     0.152102      0.102287      0.052516     Biso  1.000000 C
   C21        1.0     0.108411      0.163148      0.918740     Biso  1.000000 C
   C22        1.0     0.137103      0.039240      0.995628     Biso  1.000000 C
   C23        1.0     0.514306      0.323880      0.000140     Biso  1.000000 C
   C24        1.0     0.048781      0.010747      0.052859     Biso  1.000000 C
   C25        1.0     0.399560      0.385972      0.034845     Biso  1.000000 C
   C26        1.0     0.326021      0.384789      0.993828     Biso  1.000000 C
   C27        1.0     0.347217      0.223565      0.649571     Biso  1.000000 C
   C28        1.0     0.499905      0.251546      0.672522     Biso  1.000000 C
   C29        1.0     0.460657      0.350303      0.653250     Biso  1.000000 C
   C30        1.0     0.458473      0.306884      0.615305     Biso  1.000000 C
   C31        1.0     0.556762      0.411766      0.714734     Biso  1.000000 C
   C32        1.0     0.445416      0.392965      0.621772     Biso  1.000000 C
   C33        1.0     0.392710      0.362465      0.726278     Biso  1.000000 C
   C34        1.0     0.437063      0.341470      0.705981     Biso  1.000000 C
   C35        1.0     0.442850      0.476599      0.765273     Biso  1.000000 C
   C36        1.0     0.354412      0.347331      0.693760     Biso  1.000000 C
   C37        1.0     0.341866      0.340557      0.810167     Biso  1.000000 C
   C38        1.0     0.386423      0.340408      0.779777     Biso  1.000000 C
   C39        1.0     0.318173      0.468080      0.813071     Biso  1.000000 C
   C40        1.0     0.313614      0.295435      0.798394     Biso  1.000000 C
   C41        1.0     0.362290      0.312919      0.907859     Biso  1.000000 C
   C42        1.0     0.350535      0.349504      0.866950     Biso  1.000000 C
   C43        1.0     0.298702      0.219842      0.982947     Biso  1.000000 C
   C44        1.0     0.393773      0.275119      0.885236     Biso  1.000000 C
   C45        1.0     0.373912      0.381284      0.980849     Biso  1.000000 C
   C46        1.0     0.387576      0.333547      0.951337     Biso  1.000000 C
   C47        1.0     0.441047      0.453538      0.904910     Biso  1.000000 C
   C48        1.0     0.414032      0.346480      0.070511     Biso  1.000000 C
   C49        1.0     0.486337      0.223593      0.584053     Biso  1.000000 C
   C50        1.0     0.077305      0.055965      0.063626     Biso  1.000000 C
   C51        1.0     0.020225      0.003585      0.097982     Biso  1.000000 C
   C52        1.0     0.034927      0.806277      0.606387     Biso  1.000000 C
   C53        1.0     0.089086      0.756495      0.736767     Biso  1.000000 C
   C54        1.0     0.007139      0.729805      0.579929     Biso  1.000000 C
   C55        1.0     0.120770      0.706952      0.578328     Biso  1.000000 C
   C56        1.0     0.086986      0.744787      0.572581     Biso  1.000000 C
   C57        1.0     0.199695      0.749703      0.680868     Biso  1.000000 C
   C58        1.0     0.097015      0.659125      0.574088     Biso  1.000000 C
   C59        1.0     0.171062      0.744548      0.497930     Biso  1.000000 C
   C60        1.0     0.152263      0.702651      0.530765     Biso  1.000000 C
   C61        1.0     0.249629      0.656523      0.439362     Biso  1.000000 C
   C62        1.0     0.134234      0.776033      0.476143     Biso  1.000000 C
   C63        1.0     0.235228      0.810931      0.510996     Biso  1.000000 C
   C64        1.0     0.203340      0.772698      0.534663     Biso  1.000000 C
   C65        1.0     0.346852      0.786697      0.452423     Biso  1.000000 C
   C66        1.0     0.219418      0.836133      0.463040     Biso  1.000000 C
   C67        1.0     0.214129      0.893966      0.562390     Biso  1.000000 C
   C68        1.0     0.243263      0.848433      0.553332     Biso  1.000000 C
   C69        1.0     0.193682      0.967089      0.451971     Biso  1.000000 C
   C70        1.0     0.165188      0.881963      0.570683     Biso  1.000000 C
   C71        1.0     0.212258      0.955937      0.643100     Biso  1.000000 C
   C72        1.0     0.232795      0.914286      0.613253     Biso  1.000000 C
   C73        1.0     0.046807      0.752959      0.604327     Biso  1.000000 C
   C74        1.0     0.075257      0.883299      0.042697     Biso  1.000000 C
   C75        1.0     0.961943      0.833427      0.577959     Biso  1.000000 C
   C76        1.0     0.007501      0.881541      0.639699     Biso  1.000000 C
   C77        1.0     0.981445      0.989205      0.987545     Biso  1.000000 C
   C78        1.0     0.025107      0.013183      0.001796     Biso  1.000000 C
   C79        1.0     0.943377      0.896727      0.078074     Biso  1.000000 C
   C80        1.0     0.943907      0.022594      0.001615     Biso  1.000000 C
   C81        1.0     0.974628      0.017397      0.885017     Biso  1.000000 C
   C82        1.0     0.985455      0.982406      0.927967     Biso  1.000000 C
   C83        1.0     0.856477      0.000553      0.894478     Biso  1.000000 C
   C84        1.0     0.002186      0.062740      0.889906     Biso  1.000000 C
   C85        1.0     0.008315      0.953740      0.809869     Biso  1.000000 C
   C86        1.0     0.983458      0.997827      0.830704     Biso  1.000000 C
   C87        1.0     0.116857      0.996623      0.852006     Biso  1.000000 C
   C88        1.0     0.986731      0.911238      0.832222     Biso  1.000000 C
   C89        1.0     0.005918      0.990665      0.711714     Biso  1.000000 C
   C90        1.0     0.007265      0.949782      0.750856     Biso  1.000000 C
   C91        1.0     0.900381      0.035244      0.752999     Biso  1.000000 C
   C92        1.0     0.046251      0.019175      0.721792     Biso  1.000000 C
   C93        1.0     0.980767      0.929257      0.633459     Biso  1.000000 C
   C94        1.0     0.008613      0.971663      0.656689     Biso  1.000000 C
   C95        1.0     0.863886      0.959407      0.638279     Biso  1.000000 C
   C96        1.0     0.975649      0.943838      0.576121     Biso  1.000000 C
   C97        1.0     0.991426      0.831628      0.624939     Biso  1.000000 C
   C98        1.0     0.972104      0.797568      0.758023     Biso  1.000000 C
   C99        1.0     0.133290      0.882254      0.716052     Biso  1.000000 C
   C100       1.0     0.465183      0.254518      0.629199     Biso  1.000000 C
   C101       1.0     0.419519      0.293588      0.460758     Biso  1.000000 C
   C102       1.0     0.636602      0.803838      0.201979     Biso  1.000000 C
   C103       1.0     0.574649      0.869549      0.279217     Biso  1.000000 C
   C104       1.0     0.624886      0.865715      0.267406     Biso  1.000000 C
   C105       1.0     0.488328      0.959210      0.259859     Biso  1.000000 C
   C106       1.0     0.549279      0.835603      0.245630     Biso  1.000000 C
   C107       1.0     0.576297      0.886468      0.384826     Biso  1.000000 C
   C108       1.0     0.565421      0.859055      0.335594     Biso  1.000000 C
   C109       1.0     0.691789      0.853353      0.388804     Biso  1.000000 C
   C110       1.0     0.555127      0.935651      0.381768     Biso  1.000000 C
   C111       1.0     0.541783      0.814311      0.445410     Biso  1.000000 C
   C112       1.0     0.559159      0.865525      0.436797     Biso  1.000000 C
   C113       1.0     0.443858      0.838520      0.367664     Biso  1.000000 C
   C114       1.0     0.578042      0.779057      0.430583     Biso  1.000000 C
   C115       1.0     0.487439      0.817023      0.533766     Biso  1.000000 C
   C116       1.0     0.530335      0.807343      0.504058     Biso  1.000000 C
   C117       1.0     0.407160      0.901664      0.495799     Biso  1.000000 C
   C118       1.0     0.454266      0.774380      0.516852     Biso  1.000000 C
   C119       1.0     0.466822      0.826486      0.634679     Biso  1.000000 C
   C120       1.0     0.498619      0.818145      0.590226     Biso  1.000000 C
   C121       1.0     0.356910      0.772300      0.613053     Biso  1.000000 C
   C122       1.0     0.495898      0.815961      0.684518     Biso  1.000000 C
   C123       1.0     0.646925      0.963760      0.155542     Biso  1.000000 C
   C124       1.0     0.426908      0.905097      0.679045     Biso  1.000000 C
   C125       1.0     0.697333      0.855816      0.229951     Biso  1.000000 C
   C126       1.0     0.778970      0.848243      0.225225     Biso  1.000000 C
   C127       1.0     0.871068      0.288093      0.278268     Biso  1.000000 C
   C128       1.0     0.880229      0.202383      0.157244     Biso  1.000000 C
   C129       1.0     0.843262      0.091232      0.185276     Biso  1.000000 C
   C130       1.0     0.857737      0.134160      0.220517     Biso  1.000000 C
   C131       1.0     0.942485      0.014792      0.198006     Biso  1.000000 C
   C132       1.0     0.817281      0.057885      0.222385     Biso  1.000000 C
   C133       1.0     0.783180      0.079597      0.107744     Biso  1.000000 C
   C134       1.0     0.816563      0.109944      0.140262     Biso  1.000000 C
   C135       1.0     0.668961      0.104944      0.138846     Biso  1.000000 C
   C136       1.0     0.771561      0.110428      0.060274     Biso  1.000000 C
   C137       1.0     0.782579      0.993294      0.058297     Biso  1.000000 C
   C138       1.0     0.804059      0.034181      0.089259     Biso  1.000000 C
   C139       1.0     0.741996      0.052173      0.934554     Biso  1.000000 C
   C140       1.0     0.819610      0.969500      0.028604     Biso  1.000000 C
   C141       1.0     0.778000      0.917961      0.123171     Biso  1.000000 C
   C142       1.0     0.756352      0.958425      0.092815     Biso  1.000000 C
   C143       1.0     0.787923      0.826743      0.020556     Biso  1.000000 C
   C144       1.0     0.815798      0.932012      0.158664     Biso  1.000000 C
   C145       1.0     0.737257      0.854841      0.192368     Biso  1.000000 C
   C146       1.0     0.738788      0.899921      0.157816     Biso  1.000000 C
   C147       1.0     0.709208      0.772522      0.087192     Biso  1.000000 C
   C148       1.0     0.645558      0.852121      0.215963     Biso  1.000000 C
   C149       1.0     0.439396      0.151024      0.564254     Biso  1.000000 C
   C150       1.0     0.449600      0.879012      0.633082     Biso  1.000000 C
   C151       1.0     0.398387      0.870577      0.712000     Biso  1.000000 C
   C152       1.0     0.640179      0.313462      0.783528     Biso  1.000000 C
   C153       1.0     0.716907      0.211376      0.661532     Biso  1.000000 C
   C154       1.0     0.714148      0.330146      0.752924     Biso  1.000000 C
   C155       1.0     0.745509      0.177043      0.332242     Biso  1.000000 C
   C156       1.0     0.769470      0.211272      0.370168     Biso  1.000000 C
   C157       1.0     0.763367      0.266074      0.234275     Biso  1.000000 C
   C158       1.0     0.770546      0.132160      0.331256     Biso  1.000000 C
   C159       1.0     0.683963      0.141301      0.397266     Biso  1.000000 C
   C160       1.0     0.695886      0.171576      0.347458     Biso  1.000000 C
   C161       1.0     0.689246      0.029130      0.326518     Biso  1.000000 C
   C162       1.0     0.707456      0.160207      0.441599     Biso  1.000000 C
   C163       1.0     0.605041      0.124479      0.439038     Biso  1.000000 C
   C164       1.0     0.636654      0.153695      0.406298     Biso  1.000000 C
   C165       1.0     0.552901      0.075036      0.322887     Biso  1.000000 C
   C166       1.0     0.626721      0.097332      0.483528     Biso  1.000000 C
   C167       1.0     0.533779      0.142011      0.504295     Biso  1.000000 C
   C168       1.0     0.566510      0.155017      0.459180     Biso  1.000000 C
   C169       1.0     0.484990      0.021563      0.520343     Biso  1.000000 C
   C170       1.0     0.556746      0.140115      0.557882     Biso  1.000000 C
   C171       1.0     0.459675      0.196367      0.543163     Biso  1.000000 C
   C172       1.0     0.497168      0.179939      0.501892     Biso  1.000000 C
   C173       1.0     0.683133      0.290879      0.765213     Biso  1.000000 C
   C174       1.0     0.369563      0.988008      0.587880     Biso  1.000000 C
   C175       1.0     0.658179      0.311078      0.880584     Biso  1.000000 C
   C176       1.0     0.611070      0.249847      0.835005     Biso  1.000000 C
   C177       1.0     0.492703      0.971607      0.702667     Biso  1.000000 C
   C178       1.0     0.460931      0.928808      0.715679     Biso  1.000000 C
   C179       1.0     0.576349      0.995561      0.600900     Biso  1.000000 C
   C180       1.0     0.465416      0.011522      0.677912     Biso  1.000000 C
   C181       1.0     0.549308      0.982081      0.784037     Biso  1.000000 C
   C182       1.0     0.509255      0.000301      0.751267     Biso  1.000000 C
   C183       1.0     0.547356      0.856792      0.810532     Biso  1.000000 C
   C184       1.0     0.595625      0.980870      0.758106     Biso  1.000000 C
   C185       1.0     0.574061      0.066909      0.832617     Biso  1.000000 C
   C186       1.0     0.557415      0.013847      0.832685     Biso  1.000000 C
   C187       1.0     0.666683      0.120891      0.758667     Biso  1.000000 C
   C188       1.0     0.539482      0.093329      0.803365     Biso  1.000000 C
   C189       1.0     0.565399      0.133485      0.914311     Biso  1.000000 C
   C190       1.0     0.575835      0.082662      0.892926     Biso  1.000000 C
   C191       1.0     0.461277      0.179430      0.969524     Biso  1.000000 C
   C192       1.0     0.586869      0.132866      0.966579     Biso  1.000000 C
   C193       1.0     0.577612      0.225804      0.872822     Biso  1.000000 C
   C194       1.0     0.590717      0.171621      0.879112     Biso  1.000000 C
   C195       1.0     0.477911      0.214410      0.794936     Biso  1.000000 C
   C196       1.0     0.584960      0.243259      0.926175     Biso  1.000000 C
   C197       1.0     0.624107      0.301587      0.840771     Biso  1.000000 C
   C198       1.0     0.513443      0.357074      0.833465     Biso  1.000000 C
   C199       1.0     0.244204      0.961753      0.687930     Biso  1.000000 C
   C200       1.0     0.213163      0.054730      0.626785     Biso  1.000000 C
   C201       1.0     0.208975      0.000696      0.609878     Biso  1.000000 C
   C202       1.0     0.794256      0.545372      0.418670     Biso  1.000000 C
   C203       1.0     0.826421      0.695465      0.487317     Biso  1.000000 C
   C204       1.0     0.743215      0.588365      0.471507     Biso  1.000000 C
   C205       1.0     0.811814      0.551801      0.574155     Biso  1.000000 C
   C206       1.0     0.805904      0.539449      0.515602     Biso  1.000000 C
   C207       1.0     0.925519      0.600237      0.567772     Biso  1.000000 C
   C208       1.0     0.768572      0.570699      0.591732     Biso  1.000000 C
   C209       1.0     0.819727      0.490989      0.657242     Biso  1.000000 C
   C210       1.0     0.819103      0.502469      0.600105     Biso  1.000000 C
   C211       1.0     0.825746      0.588099      0.751225     Biso  1.000000 C
   C212       1.0     0.771790      0.478284      0.672228     Biso  1.000000 C
   C213       1.0     0.857524      0.414489      0.705036     Biso  1.000000 C
   C214       1.0     0.846835      0.446130      0.657770     Biso  1.000000 C
   C215       1.0     0.948443      0.480713      0.765480     Biso  1.000000 C
   C216       1.0     0.817261      0.394411      0.722225     Biso  1.000000 C
   C217       1.0     0.912061      0.340104      0.724327     Biso  1.000000 C
   C218       1.0     0.886445      0.372790      0.688596     Biso  1.000000 C
   C219       1.0     0.017433      0.391754      0.777739     Biso  1.000000 C
   C220       1.0     0.893137      0.335121      0.779103     Biso  1.000000 C
   C221       1.0     0.882817      0.249259      0.698411     Biso  1.000000 C
   C222       1.0     0.915567      0.291297      0.697006     Biso  1.000000 C
   C223       1.0     0.791749      0.573304      0.469183     Biso  1.000000 C
   C224       1.0     0.932498      0.191180      0.810076     Biso  1.000000 C
   C225       1.0     0.771810      0.610153      0.354049     Biso  1.000000 C
   C226       1.0     0.789393      0.527017      0.327685     Biso  1.000000 C
   C227       1.0     0.578123      0.178703      0.129626     Biso  1.000000 C
   C228       1.0     0.598265      0.284364      0.143908     Biso  1.000000 C
   C229       1.0     0.552280      0.261313      0.148661     Biso  1.000000 C
   C230       1.0     0.627303      0.281488      0.281782     Biso  1.000000 C
   C231       1.0     0.616602      0.270458      0.088695     Biso  1.000000 C
   C232       1.0     0.616818      0.380471      0.131460     Biso  1.000000 C
   C233       1.0     0.587645      0.337851      0.148781     Biso  1.000000 C
   C234       1.0     0.650253      0.374495      0.996795     Biso  1.000000 C
   C235       1.0     0.597509      0.420215      0.160980     Biso  1.000000 C
   C236       1.0     0.705505      0.412081      0.139829     Biso  1.000000 C
   C237       1.0     0.667262      0.371174      0.146698     Biso  1.000000 C
   C238       1.0     0.791972      0.408181      0.040102     Biso  1.000000 C
   C239       1.0     0.686079      0.454143      0.115491     Biso  1.000000 C
   C240       1.0     0.768314      0.457285      0.199655     Biso  1.000000 C
   C241       1.0     0.722539      0.432062      0.192594     Biso  1.000000 C
   C242       1.0     0.857466      0.375052      0.158641     Biso  1.000000 C
   C243       1.0     0.781564      0.490812      0.156155     Biso  1.000000 C
   C244       1.0     0.802812      0.514458      0.274566     Biso  1.000000 C
   C245       1.0     0.887802      0.428955      0.313622     Biso  1.000000 C
   C246       1.0     0.804922      0.560565      0.244289     Biso  1.000000 C
   C247       1.0     0.802027      0.567377      0.365246     Biso  1.000000 C
   C248       1.0     0.922236      0.551718      0.378650     Biso  1.000000 C
   C249       1.0     0.524073      0.215234      0.298504     Biso  1.000000 C
   C250       1.0     0.837019      0.265431      0.685143     Biso  1.000000 C
   C251       1.0     0.902158      0.217853      0.654071     Biso  1.000000 C
   C252       1.0     0.575971      0.432972      0.492974     Biso  1.000000 C
   C253       1.0     0.579331      0.408901      0.374989     Biso  1.000000 C
   C254       1.0     0.584682      0.376180      0.421163     Biso  1.000000 C
   C255       1.0     0.685611      0.474149      0.366654     Biso  1.000000 C
   C256       1.0     0.553841      0.381218      0.334841     Biso  1.000000 C
   C257       1.0     0.539379      0.492262      0.339191     Biso  1.000000 C
   C258       1.0     0.548959      0.455323      0.380126     Biso  1.000000 C
   C259       1.0     0.427981      0.469565      0.294678     Biso  1.000000 C
   C260       1.0     0.521033      0.532546      0.373874     Biso  1.000000 C
   C261       1.0     0.583893      0.555897      0.278483     Biso  1.000000 C
   C262       1.0     0.581838      0.509406      0.311396     Biso  1.000000 C
   C263       1.0     0.637995      0.565454      0.146228     Biso  1.000000 C
   C264       1.0     0.541107      0.565198      0.251257     Biso  1.000000 C
   C265       1.0     0.595105      0.648856      0.300372     Biso  1.000000 C
   C266       1.0     0.596895      0.596126      0.313599     Biso  1.000000 C
   C267       1.0     0.694597      0.652306      0.216735     Biso  1.000000 C
   C268       1.0     0.548112      0.664485      0.293552     Biso  1.000000 C
   C269       1.0     0.655559      0.664488      0.373588     Biso  1.000000 C
   C270       1.0     0.611328      0.679473      0.344803     Biso  1.000000 C
   C271       1.0     0.739828      0.740662      0.313946     Biso  1.000000 C
   C272       1.0     0.643810      0.654312      0.428210     Biso  1.000000 C
   C273       1.0     0.593687      0.278589      0.553987     Biso  1.000000 C
   C274       1.0     0.878442      0.172860      0.636995     Biso  1.000000 C
   C275       1.0     0.648812      0.392439      0.483152     Biso  1.000000 C
   C276       1.0     0.662263      0.476142      0.516336     Biso  1.000000 C
   C277       1.0     0.921386      0.068539      0.561312     Biso  1.000000 C
   C278       1.0     0.863304      0.144056      0.682623     Biso  1.000000 C
   C279       1.0     0.834318      0.199519      0.543988     Biso  1.000000 C
   C280       1.0     0.836638      0.184682      0.601645     Biso  1.000000 C
   C281       1.0     0.800408      0.086250      0.484542     Biso  1.000000 C
   C282       1.0     0.789448      0.221403      0.538011     Biso  1.000000 C
   C283       1.0     0.873686      0.269908      0.489223     Biso  1.000000 C
   C284       1.0     0.871217      0.233558      0.533103     Biso  1.000000 C
   C285       1.0     0.980150      0.305988      0.537506     Biso  1.000000 C
   C286       1.0     0.858467      0.248861      0.439652     Biso  1.000000 C
   C287       1.0     0.842428      0.360752      0.480346     Biso  1.000000 C
   C288       1.0     0.841788      0.311898      0.504691     Biso  1.000000 C
   C289       1.0     0.934769      0.453026      0.483118     Biso  1.000000 C
   C290       1.0     0.844315      0.356656      0.422809     Biso  1.000000 C
   C291       1.0     0.752478      0.376879      0.501365     Biso  1.000000 C
   C292       1.0     0.801326      0.393446      0.495049     Biso  1.000000 C
   C293       1.0     0.735221      0.342425      0.365355     Biso  1.000000 C
   C294       1.0     0.745037      0.349054      0.550842     Biso  1.000000 C
   C295       1.0     0.674412      0.423516      0.519899     Biso  1.000000 C
   C296       1.0     0.722872      0.422935      0.502695     Biso  1.000000 C
   C297       1.0     0.641623      0.357265      0.636076     Biso  1.000000 C
   C298       1.0     0.598382      0.388370      0.477227     Biso  1.000000 C
   C299       1.0     0.495552      0.200650      0.144119     Biso  1.000000 C
   C300       1.0     0.544284      0.208206      0.158325     Biso  1.000000 C
   C301       1.0     0.425364      0.160809      0.125792     Biso  1.000000 C
   C302       1.0     0.305038      0.505943      0.666007     Biso  1.000000 C
   C303       1.0     0.345149      0.519703      0.555603     Biso  1.000000 C
   C304       1.0     0.300121      0.496798      0.567873     Biso  1.000000 C
   C305       1.0     0.328331      0.645777      0.559633     Biso  1.000000 C
   C306       1.0     0.382665      0.488401      0.575180     Biso  1.000000 C
   C307       1.0     0.390226      0.528508      0.461857     Biso  1.000000 C
   C308       1.0     0.346664      0.515997      0.494224     Biso  1.000000 C
   C309       1.0     0.436288      0.418537      0.494089     Biso  1.000000 C
   C310       1.0     0.382322      0.520509      0.403929     Biso  1.000000 C
   C311       1.0     0.437677      0.608935      0.443851     Biso  1.000000 C
   C312       1.0     0.404591      0.578930      0.476429     Biso  1.000000 C
   C313       1.0     0.364480      0.675145      0.360323     Biso  1.000000 C
   C314       1.0     0.455691      0.649776      0.472463     Biso  1.000000 C
   C315       1.0     0.672519      0.502060      0.822622     Biso  1.000000 C
   C316       1.0     0.646247      0.455918      0.825356     Biso  1.000000 C
   C317       1.0     0.766847      0.449732      0.890508     Biso  1.000000 C
   C318       1.0     0.680642      0.513354      0.765612     Biso  1.000000 C
   C319       1.0     0.622153      0.547801      0.897841     Biso  1.000000 C
   C320       1.0     0.645707      0.545203      0.843494     Biso  1.000000 C
   C321       1.0     0.551835      0.449767      0.940904     Biso  1.000000 C
   C322       1.0     0.657850      0.537041      0.936773     Biso  1.000000 C
   C323       1.0     0.221754      0.621917      0.655672     Biso  1.000000 C
   C324       1.0     0.600175      0.628048      0.955047     Biso  1.000000 C
   C325       1.0     0.245367      0.462091      0.619324     Biso  1.000000 C
   C326       1.0     0.219176      0.465980      0.708143     Biso  1.000000 C
   C327       1.0     0.308880      0.071891      0.713559     Biso  1.000000 C
   C328       1.0     0.207476      0.080195      0.578430     Biso  1.000000 C
   C329       1.0     0.165449      0.120964      0.684544     Biso  1.000000 C
   C330       1.0     0.177055      0.069445      0.668180     Biso  1.000000 C
   C331       1.0     0.058219      0.140032      0.618443     Biso  1.000000 C
   C332       1.0     0.136159      0.111906      0.733008     Biso  1.000000 C
   C333       1.0     0.200070      0.204380      0.719800     Biso  1.000000 C
   C334       1.0     0.202300      0.155217      0.695221     Biso  1.000000 C
   C335       1.0     0.247706      0.205719      0.852066     Biso  1.000000 C
   C336       1.0     0.239619      0.230956      0.699488     Biso  1.000000 C
   C337       1.0     0.144014      0.285083      0.717435     Biso  1.000000 C
   C338       1.0     0.158981      0.233703      0.705959     Biso  1.000000 C
   C339       1.0     0.045518      0.270963      0.637082     Biso  1.000000 C
   C340       1.0     0.153233      0.289765      0.774900     Biso  1.000000 C
   C341       1.0     0.154825      0.373672      0.677155     Biso  1.000000 C
   C342       1.0     0.168677      0.320544      0.684566     Biso  1.000000 C
   C343       1.0     0.050180      0.410915      0.611392     Biso  1.000000 C
   C344       1.0     0.137878      0.394539      0.726941     Biso  1.000000 C
   C345       1.0     0.205221      0.453642      0.653216     Biso  1.000000 C
   C346       1.0     0.196778      0.398992      0.656538     Biso  1.000000 C
   C347       1.0     0.112049      0.534363      0.658308     Biso  1.000000 C
   C348       1.0     0.275128      0.506105      0.619041     Biso  1.000000 C
   C349       1.0     0.603073      0.598590      0.905193     Biso  1.000000 C
   C350       1.0     0.716888      0.672311      0.938366     Biso  1.000000 C
   C351       1.0     0.582401      0.677210      0.944158     Biso  1.000000 C
   C352       1.0     0.250643      0.984295      0.171740     Biso  1.000000 C
   C353       1.0     0.255884      0.899879      0.293996     Biso  1.000000 C
   C354       1.0     0.325194      0.968947      0.341579     Biso  1.000000 C
   C355       1.0     0.332564      0.923043      0.305555     Biso  1.000000 C
   C356       1.0     0.282482      0.058671      0.256756     Biso  1.000000 C
   C357       1.0     0.305526      0.950536      0.392193     Biso  1.000000 C
   C358       1.0     0.384768      0.039067      0.376285     Biso  1.000000 C
   C359       1.0     0.371660      0.991730      0.349966     Biso  1.000000 C
   C360       1.0     0.336764      0.077344      0.499757     Biso  1.000000 C
   C361       1.0     0.435361      0.036911      0.375889     Biso  1.000000 C
   C362       1.0     0.386348      0.133257      0.349522     Biso  1.000000 C
   C363       1.0     0.367275      0.082697      0.347718     Biso  1.000000 C
   C364       1.0     0.332535      0.247588      0.349134     Biso  1.000000 C
   C365       1.0     0.406682      0.146671      0.400679     Biso  1.000000 C
   C366       1.0     0.413134      0.133271      0.245683     Biso  1.000000 C
   C367       1.0     0.419816      0.140734      0.304888     Biso  1.000000 C
   C368       1.0     0.392051      0.024303      0.173062     Biso  1.000000 C
   C369       1.0     0.371169      0.154529      0.228863     Biso  1.000000 C
   C370       1.0     0.466515      0.157110      0.158223     Biso  1.000000 C
   C371       1.0     0.453791      0.159643      0.219345     Biso  1.000000 C
   C372       1.0     0.531944      0.045243      0.166260     Biso  1.000000 C
   C373       1.0     0.313953      0.858456      0.242805     Biso  1.000000 C
   C374       1.0     0.298298      0.906024      0.268386     Biso  1.000000 C
   C375       1.0     0.319491      0.800277      0.318119     Biso  1.000000 C
   C376       1.0     0.207434      0.730238      0.276901     Biso  1.000000 C
   C377       1.0     0.527375      0.604489      0.008805     Biso  1.000000 C
   C378       1.0     0.577644      0.602769      0.998474     Biso  1.000000 C
   C379       1.0     0.476573      0.720387      0.000512     Biso  1.000000 C
   C380       1.0     0.504800      0.587999      0.962455     Biso  1.000000 C
   C381       1.0     0.472240      0.560080      0.078608     Biso  1.000000 C
   C382       1.0     0.516028      0.571253      0.056648     Biso  1.000000 C
   C383       1.0     0.377108      0.544282      0.992472     Biso  1.000000 C
   C384       1.0     0.484715      0.523446      0.120320     Biso  1.000000 C
   C385       1.0     0.413625      0.601465      0.146043     Biso  1.000000 C
   C386       1.0     0.450479      0.603050      0.104110     Biso  1.000000 C
   C387       1.0     0.940479      0.160650      0.207572     Biso  1.000000 C
   C388       1.0     0.348212      0.490912      0.173480     Biso  1.000000 C
   C389       1.0     0.395021      0.696126      0.164953     Biso  1.000000 C
   C390       1.0     0.383114      0.645745      0.145870     Biso  1.000000 C
   C391       1.0     0.457035      0.724390      0.282163     Biso  1.000000 C
   C392       1.0     0.434821      0.715498      0.135000     Biso  1.000000 C
   C393       1.0     0.338590      0.770927      0.170896     Biso  1.000000 C
   C394       1.0     0.351107      0.722273      0.149757     Biso  1.000000 C
   C395       1.0     0.428420      0.856588      0.187219     Biso  1.000000 C
   C396       1.0     0.294036      0.777078      0.141855     Biso  1.000000 C
   C397       1.0     0.305171      0.808073      0.262857     Biso  1.000000 C
   C398       1.0     0.329410      0.770871      0.229348     Biso  1.000000 C
   C399       1.0     0.438165      0.596303      0.198996     Biso  1.000000 C
   C400       1.0     0.889960      0.177067      0.206921     Biso  1.000000 C
   C401       1.0     0.769632      0.482615      0.252051     Biso  1.000000 C
   C402       1.0     0.984844      0.132762      0.077863     Biso  1.000000 C
   C403       1.0     0.407926      0.695275      0.220061     Biso  1.000000 C
   C404       1.0     0.370057      0.808509      0.153922     Biso  1.000000 C
   C405       1.0     0.256682      0.792572      0.256398     Biso  1.000000 C
   C406       1.0     0.293351      0.935977      0.221680     Biso  1.000000 C
   C407       1.0     0.294825      0.006263      0.322085     Biso  1.000000 C
   C408       1.0     0.374154      0.037399      0.433475     Biso  1.000000 C
   C409       1.0     0.347388      0.166379      0.344253     Biso  1.000000 C
   C410       1.0     0.417955      0.080991      0.232038     Biso  1.000000 C
   C411       1.0     0.491300      0.112286      0.144514     Biso  1.000000 C
   C412       1.0     0.552500      0.198875      0.217971     Biso  1.000000 C
   C413       1.0     0.628052      0.270884      0.188470     Biso  1.000000 C
   C414       1.0     0.611367      0.387041      0.074861     Biso  1.000000 C
   C415       1.0     0.737185      0.387346      0.104886     Biso  1.000000 C
   C416       1.0     0.801936      0.417025      0.200827     Biso  1.000000 C
   C417       1.0     0.847750      0.492871      0.280069     Biso  1.000000 C
   C418       1.0     0.849856      0.579653      0.360670     Biso  1.000000 C
   C419       1.0     0.818922      0.617696      0.471623     Biso  1.000000 C
   C420       1.0     0.850351      0.584944      0.584083     Biso  1.000000 C
   C421       1.0     0.837368      0.528270      0.691805     Biso  1.000000 C
   C422       1.0     0.878852      0.445501      0.748932     Biso  1.000000 C
   C423       1.0     0.957539      0.360026      0.729746     Biso  1.000000 C
   C424       1.0     0.380416      0.559420      0.140672     Biso  1.000000 C
   C425       1.0     0.882600      0.226434      0.750122     Biso  1.000000 C
   C426       1.0     0.438986      0.535207      0.039986     Biso  1.000000 C
   C427       1.0     0.647675      0.643701      0.968782     Biso  1.000000 C
   C428       1.0     0.967855      0.024365      0.716022     Biso  1.000000 C
   C429       1.0     0.934010      0.924829      0.651665     Biso  1.000000 C
   C430       1.0     0.971894      0.805886      0.668662     Biso  1.000000 C
   C431       1.0     0.051851      0.735715      0.660696     Biso  1.000000 C
   C432       1.0     0.147207      0.708568      0.627621     Biso  1.000000 C
   C433       1.0     0.196745      0.718065      0.453470     Biso  1.000000 C
   C434       1.0     0.281594      0.784822      0.500909     Biso  1.000000 C
   C435       1.0     0.224872      0.928593      0.518588     Biso  1.000000 C
   C436       1.0     0.166894      0.939108      0.669234     Biso  1.000000 C
   C437       1.0     0.260485      0.062532      0.642637     Biso  1.000000 C
   C438       1.0     0.133895      0.141028      0.644449     Biso  1.000000 C
   C439       1.0     0.204600      0.197152      0.779849     Biso  1.000000 C
   C440       1.0     0.094411      0.283111      0.706979     Biso  1.000000 C
   C441       1.0     0.120844      0.376890      0.632559     Biso  1.000000 C
   C442       1.0     0.165527      0.481228      0.634619     Biso  1.000000 C
   C443       1.0     0.246417      0.551548      0.615607     Biso  1.000000 C
   C444       1.0     0.350719      0.569934      0.575700     Biso  1.000000 C
   C445       1.0     0.428000      0.495099      0.468584     Biso  1.000000 C
   C446       1.0     0.419952      0.626352      0.394592     Biso  1.000000 C
   C447       1.0     0.718952      0.498746      0.845039     Biso  1.000000 C
   C448       1.0     0.582866      0.512977      0.901253     Biso  1.000000 C
   C449       1.0     0.516784      0.654516      0.024710     Biso  1.000000 C
   C450       1.0     0.058161      0.952733      0.827996     Biso  1.000000 C
   C451       1.0     0.909858      0.140637      0.604150     Biso  1.000000 C
   C452       1.0     0.919444      0.292474      0.487799     Biso  1.000000 C
   C453       1.0     0.941755      0.704260      0.904150     Biso  1.000000 C
   C454       1.0     0.938743      0.712363      0.963257     Biso  1.000000 C
   C455       1.0     0.832964      0.657388      0.865489     Biso  1.000000 C
   C456       1.0     0.965316      0.745358      0.877944     Biso  1.000000 C
   C457       1.0     0.997756      0.645946      0.842240     Biso  1.000000 C
   C458       1.0     0.972918      0.660308      0.891333     Biso  1.000000 C
   C459       1.0     0.933076      0.670588      0.724391     Biso  1.000000 C
   C460       1.0     0.036687      0.679345      0.826237     Biso  1.000000 C
   C461       1.0     0.052471      0.571668      0.830591     Biso  1.000000 C
   C462       1.0     0.017624      0.599129      0.861979     Biso  1.000000 C
   C463       1.0     0.043554      0.468983      0.920100     Biso  1.000000 C
   C464       1.0     0.040655      0.573194      0.774772     Biso  1.000000 C
   C465       1.0     0.145310      0.572823      0.839336     Biso  1.000000 C
   C466       1.0     0.098789      0.595818      0.838399     Biso  1.000000 C
   C467       1.0     0.179708      0.469938      0.913836     Biso  1.000000 C
   C468       1.0     0.149837      0.546116      0.787445     Biso  1.000000 C
   C469       1.0     0.230375      0.614108      0.836154     Biso  1.000000 C
   C470       1.0     0.178771      0.616654      0.836512     Biso  1.000000 C
   C471       1.0     0.246960      0.593023      0.968775     Biso  1.000000 C
   C472       1.0     0.247318      0.588995      0.788496     Biso  1.000000 C
   C473       1.0     0.296854      0.682459      0.824223     Biso  1.000000 C
   C474       1.0     0.924239      0.763121      0.037425     Biso  1.000000 C
   C475       1.0     0.837510      0.153747      0.512815     Biso  1.000000 C
   C476       1.0     0.906232      0.857598      0.923410     Biso  1.000000 C
   C477       1.0     0.902074      0.742122      0.989538     Biso  1.000000 C
   C478       1.0     0.884296      0.390678      0.497663     Biso  1.000000 C
   C479       1.0     0.740093      0.345470      0.454242     Biso  1.000000 C
   C480       1.0     0.670338      0.414382      0.576133     Biso  1.000000 C
   C481       1.0     0.578607      0.348549      0.510781     Biso  1.000000 C
   C482       1.0     0.626818      0.416956      0.357766     Biso  1.000000 C
   C483       1.0     0.506105      0.472751      0.303265     Biso  1.000000 C
   C484       1.0     0.621044      0.550676      0.238813     Biso  1.000000 C
   C485       1.0     0.622085      0.658222      0.249950     Biso  1.000000 C
   C486       1.0     0.696348      0.695856      0.369641     Biso  1.000000 C
   C487       1.0     0.954385      0.525329      0.029369     Biso  1.000000 C
   C488       1.0     0.945987      0.486415      0.991489     Biso  1.000000 C
   C489       1.0     0.946343      0.533356      0.169006     Biso  1.000000 C
   C490       1.0     0.004037      0.535248      0.023403     Biso  1.000000 C
   C491       1.0     0.876820      0.575951      0.014093     Biso  1.000000 C
   C492       1.0     0.928801      0.570405      0.017177     Biso  1.000000 C
   C493       1.0     0.869715      0.531726      0.878324     Biso  1.000000 C
   C494       1.0     0.852490      0.561112      0.066150     Biso  1.000000 C
   C495       1.0     0.863366      0.669027      0.041293     Biso  1.000000 C
   C496       1.0     0.865272      0.627982      0.001096     Biso  1.000000 C
   C497       1.0     0.786075      0.656049      0.148416     Biso  1.000000 C
   C498       1.0     0.901030      0.668823      0.076142     Biso  1.000000 C
   C499       1.0     0.861553      0.715567      0.008880     Biso  1.000000 C
   C500       1.0     0.247457      0.667211      0.833160     Biso  1.000000 C
   C501       1.0     0.927231      0.032188      0.883744     Biso  1.000000 C
   C502       1.0     0.080410      0.967161      0.056877     Biso  1.000000 C
   C503       1.0     0.333036      0.062657      0.974047     Biso  1.000000 C
   C504       1.0     0.254401      0.030265      0.902082     Biso  1.000000 C
   C505       1.0     0.266417      0.889385      0.820987     Biso  1.000000 C
   C506       1.0     0.187695      0.899398      0.966232     Biso  1.000000 C
   C507       1.0     0.112537      0.792831      0.891092     Biso  1.000000 C
   C508       1.0     0.123423      0.758799      0.037297     Biso  1.000000 C
   C509       1.0     0.160974      0.665581      0.094528     Biso  1.000000 C
   C510       1.0     0.178099      0.558049      0.114105     Biso  1.000000 C
   C511       1.0     0.170981      0.446701      0.088133     Biso  1.000000 C
   C512       1.0     0.127452      0.368368      0.011001     Biso  1.000000 C
   C513       1.0     0.040975      0.324433      0.952365     Biso  1.000000 C
   C514       1.0     0.939015      0.312413      0.934200     Biso  1.000000 C
   C515       1.0     0.874994      0.199173      0.975637     Biso  1.000000 C
   C516       1.0     0.758763      0.289474      0.954018     Biso  1.000000 C
   C517       1.0     0.764692      0.173358      0.820859     Biso  1.000000 C
   C518       1.0     0.907861      0.028175      0.404144     Biso  1.000000 C
   C519       1.0     0.016073      0.041862      0.387022     Biso  1.000000 C
   C520       1.0     0.069780      0.920677      0.480820     Biso  1.000000 C
   C521       1.0     0.125255      0.939745      0.319347     Biso  1.000000 C
   C522       1.0     0.099487      0.870414      0.220878     Biso  1.000000 C
   C523       1.0     0.968282      0.805118      0.188082     Biso  1.000000 C
   C524       1.0     0.395974      0.963860      0.000263     Biso  1.000000 C
   C525       1.0     0.946246      0.698890      0.228753     Biso  1.000000 C
   C526       1.0     0.495633      0.936274      0.037779     Biso  1.000000 C
   C527       1.0     0.667407      0.842599      0.928340     Biso  1.000000 C
   C528       1.0     0.019608      0.167472      0.224159     Biso  1.000000 C
   C529       1.0     0.860745      0.543767      0.971015     Biso  1.000000 C
   C530       1.0     0.820337      0.662450      0.068651     Biso  1.000000 C
   C531       1.0     0.886128      0.780165      0.951680     Biso  1.000000 C
   C532       1.0     0.898924      0.696496      0.873910     Biso  1.000000 C
   C533       1.0     0.965048      0.638559      0.796586     Biso  1.000000 C
   C534       1.0     0.052265      0.518692      0.847656     Biso  1.000000 C
   C535       1.0     0.150354      0.541923      0.885759     Biso  1.000000 C
   C536       1.0     0.247793      0.590016      0.882362     Biso  1.000000 C
   C537       1.0     0.306554      0.678674      0.766283     Biso  1.000000 C
   C538       1.0     0.374248      0.707917      0.907016     Biso  1.000000 C
   C539       1.0     0.453926      0.757654      0.826738     Biso  1.000000 C
   C540       1.0     0.538309      0.656468      0.764162     Biso  1.000000 C
   C541       1.0     0.537111      0.590860      0.652990     Biso  1.000000 C
   C542       1.0     0.615616      0.627543      0.588377     Biso  1.000000 C
   C543       1.0     0.722801      0.713121      0.641631     Biso  1.000000 C
   C544       1.0     0.759221      0.794901      0.554567     Biso  1.000000 C
   C545       1.0     0.677107      0.920985      0.531100     Biso  1.000000 C
   C546       1.0     0.733059      0.974434      0.625135     Biso  1.000000 C
   C547       1.0     0.800256      0.915148      0.761078     Biso  1.000000 C
   C548       1.0     0.756481      0.876247      0.857844     Biso  1.000000 C
   C549       1.0     0.573880      0.866442      0.990223     Biso  1.000000 C
   C550       1.0     0.973203      0.940087      0.010696     Biso  1.000000 C
   C551       1.0     0.031628      0.669841      0.313272     Biso  1.000000 C
   C552       1.0     0.127914      0.495487      0.388084     Biso  1.000000 C
   C553       1.0     0.516396      0.137952      0.920284     Biso  1.000000 C
   C554       1.0     0.529391      0.233340      0.856352     Biso  1.000000 C
   C555       1.0     0.585086      0.333592      0.851867     Biso  1.000000 C
   C556       1.0     0.676616      0.252989      0.723280     Biso  1.000000 C
   C557       1.0     0.747709      0.196903      0.276833     Biso  1.000000 C
   C558       1.0     0.694787      0.088094      0.386890     Biso  1.000000 C
   C559       1.0     0.584527      0.085769      0.404177     Biso  1.000000 C
   C560       1.0     0.511617      0.094616      0.492982     Biso  1.000000 C
   C561       1.0     0.427222      0.227454      0.516208     Biso  1.000000 C
   C562       1.0     0.423419      0.231257      0.650738     Biso  1.000000 C
   C563       1.0     0.509230      0.364320      0.663686     Biso  1.000000 C
   C564       1.0     0.399903      0.415506      0.728729     Biso  1.000000 C
   C565       1.0     0.314741      0.385508      0.795622     Biso  1.000000 C
   C566       1.0     0.321662      0.285806      0.928239     Biso  1.000000 C
   C567       1.0     0.381780      0.423260      0.948580     Biso  1.000000 C
   C568       1.0     0.451235      0.317199      0.046912     Biso  1.000000 C
   C569       1.0     0.354490      0.322707      0.181807     Biso  1.000000 C
   C570       1.0     0.263328      0.273883      0.207154     Biso  1.000000 C
   C571       1.0     0.216155      0.169040      0.197094     Biso  1.000000 C
   C572       1.0     0.128347      0.120531      0.142834     Biso  1.000000 C
   C573       1.0     0.092847      0.110871      0.985711     Biso  1.000000 C
   C574       1.0     0.620550      0.074604      0.811029     Biso  1.000000 C
   C575       1.0     0.057021      0.571779      0.365619     Biso  1.000000 C
   C576       1.0     0.535579      0.934485      0.806175     Biso  1.000000 C
   C577       1.0     0.392307      0.939374      0.656244     Biso  1.000000 C
   C578       1.0     0.247124      0.459835      0.301868     Biso  1.000000 C
   C579       1.0     0.287452      0.406400      0.410211     Biso  1.000000 C
   C580       1.0     0.276967      0.321814      0.501407     Biso  1.000000 C
   C581       1.0     0.234694      0.179299      0.443723     Biso  1.000000 C
   C582       1.0     0.125032      0.156923      0.449847     Biso  1.000000 C
   C583       1.0     0.053667      0.218898      0.386977     Biso  1.000000 C
   C584       1.0     0.045470      0.343954      0.325196     Biso  1.000000 C
   C585       1.0     0.997268      0.330668      0.219974     Biso  1.000000 C
   C586       1.0     0.986130      0.189329      0.137938     Biso  1.000000 C
   C587       1.0     0.882022      0.210867      0.253136     Biso  1.000000 C
   C588       1.0     0.884419      0.065345      0.168302     Biso  1.000000 C
   C589       1.0     0.740853      0.074943      0.140156     Biso  1.000000 C
   C590       1.0     0.750123      0.011930      0.017475     Biso  1.000000 C
   C591       1.0     0.796195      0.876618      0.089858     Biso  1.000000 C
   C592       1.0     0.734600      0.808630      0.162716     Biso  1.000000 C
   C593       1.0     0.635028      0.886043      0.175009     Biso  1.000000 C
   C594       1.0     0.557415      0.919573      0.265147     Biso  1.000000 C
   C595       1.0     0.625497      0.891347      0.388310     Biso  1.000000 C
   C596       1.0     0.502826      0.802883      0.412192     Biso  1.000000 C
   C597       1.0     0.471313      0.863667      0.519560     Biso  1.000000 C
   C598       1.0     0.427183      0.788763      0.634314     Biso  1.000000 C
   C599       1.0     0.530626      0.959013      0.664967     Biso  1.000000 C
   C600       1.0     0.346719      0.632438      0.706674     Biso  1.000000 C
   C601       1.0     0.823827      0.913965      0.380047     Biso  1.000000 C
   C602       1.0     0.377269      0.668111      0.868608     Biso  1.000000 C
   C603       1.0     0.906355      0.945838      0.439814     Biso  1.000000 C
   C604       1.0     0.005475      0.992454      0.405345     Biso  1.000000 C
   C605       1.0     0.966912      0.970929      0.376157     Biso  1.000000 C
   C606       1.0     0.044087      0.088710      0.323290     Biso  1.000000 C
   C607       1.0     0.996854      0.997387      0.464034     Biso  1.000000 C
   C608       1.0     0.059570      0.915245      0.422523     Biso  1.000000 C
   C609       1.0     0.048836      0.964463      0.401304     Biso  1.000000 C
   C610       1.0     0.088656      0.972680      0.546195     Biso  1.000000 C
   C611       1.0     0.020768      0.881078      0.415341     Biso  1.000000 C
   C612       1.0     0.116401      0.889527      0.341217     Biso  1.000000 C
   C613       1.0     0.102579      0.895724      0.399044     Biso  1.000000 C
   C614       1.0     0.167708      0.008311      0.330336     Biso  1.000000 C
   C615       1.0     0.162406      0.863646      0.342776     Biso  1.000000 C
   C616       1.0     0.077112      0.838018      0.260356     Biso  1.000000 C
   C617       1.0     0.077667      0.864238      0.311946     Biso  1.000000 C
   C618       1.0     0.166638      0.894298      0.185385     Biso  1.000000 C
   C619       1.0     0.102602      0.795253      0.267041     Biso  1.000000 C
   C620       1.0     0.015550      0.793707      0.201475     Biso  1.000000 C
   C621       1.0     0.028985      0.827310      0.246063     Biso  1.000000 C
   C622       1.0     0.893541      0.822407      0.214954     Biso  1.000000 C
   C623       1.0     0.042297      0.800686      0.153734     Biso  1.000000 C
   C624       1.0     0.895302      0.099087      0.366225     Biso  1.000000 C
   C625       1.0     0.992593      0.701125      0.208212     Biso  1.000000 C
   C626       1.0     0.888422      0.963438      0.349420     Biso  1.000000 C
   C627       1.0     0.822925      0.948484      0.294388     Biso  1.000000 C
   C628       1.0     0.069651      0.296321      0.874453     Biso  1.000000 C
   C629       1.0     0.057114      0.270655      0.026864     Biso  1.000000 C
   C630       1.0     0.951248      0.279610      0.979053     Biso  1.000000 C
   C631       1.0     0.983209      0.307857      0.017663     Biso  1.000000 C
   C632       1.0     0.925005      0.388695      0.901374     Biso  1.000000 C
   C633       1.0     0.970925      0.235097      0.959875     Biso  1.000000 C
   C634       1.0     0.863453      0.248463      0.989221     Biso  1.000000 C
   C635       1.0     0.906969      0.272098      0.010696     Biso  1.000000 C
   C636       1.0     0.884435      0.122884      0.005562     Biso  1.000000 C
   C637       1.0     0.830396      0.249896      0.032751     Biso  1.000000 C
   C638       1.0     0.796634      0.273285      0.921599     Biso  1.000000 C
   C639       1.0     0.841397      0.276734      0.946655     Biso  1.000000 C
   C640       1.0     0.704642      0.259234      0.012850     Biso  1.000000 C
   C641       1.0     0.799581      0.308237      0.877003     Biso  1.000000 C
   C642       1.0     0.752672      0.210307      0.860943     Biso  1.000000 C
   C643       1.0     0.791203      0.222330      0.899521     Biso  1.000000 C
   C644       1.0     0.807704      0.105633      0.808016     Biso  1.000000 C
   C645       1.0     0.710539      0.193384      0.885910     Biso  1.000000 C
   C646       1.0     0.838195      0.955830      0.349145     Biso  1.000000 C
   C647       1.0     0.813571      0.000062      0.369234     Biso  1.000000 C
   C648       1.0     0.834612      0.829697      0.387165     Biso  1.000000 C
   C649       1.0     0.917890      0.977520      0.394020     Biso  1.000000 C
   C650       1.0     0.047612      0.356846      0.040377     Biso  1.000000 C
   C651       1.0     0.019227      0.745150      0.225179     Biso  1.000000 C
   C652       1.0     0.990127      0.699651      0.150397     Biso  1.000000 C
   C653       1.0     0.239680      0.096298      0.441983     Biso  1.000000 C
   C654       1.0     0.251648      0.218022      0.525021     Biso  1.000000 C
   C655       1.0     0.130818      0.206684      0.471247     Biso  1.000000 C
   C656       1.0     0.173650      0.215756      0.501975     Biso  1.000000 C
   C657       1.0     0.117148      0.075555      0.476286     Biso  1.000000 C
   C658       1.0     0.091548      0.213237      0.504273     Biso  1.000000 C
   C659       1.0     0.083483      0.262237      0.399684     Biso  1.000000 C
   C660       1.0     0.123474      0.246408      0.430507     Biso  1.000000 C
   C661       1.0     0.981584      0.186561      0.402422     Biso  1.000000 C
   C662       1.0     0.058488      0.299650      0.431298     Biso  1.000000 C
   C663       1.0     0.076284      0.306417      0.304225     Biso  1.000000 C
   C664       1.0     0.102204      0.284218      0.349853     Biso  1.000000 C
   C665       1.0     0.977755      0.361226      0.363543     Biso  1.000000 C
   C666       1.0     0.106795      0.329163      0.265787     Biso  1.000000 C
   C667       1.0     0.019708      0.281340      0.220837     Biso  1.000000 C
   C668       1.0     0.048849      0.270330      0.270261     Biso  1.000000 C
   C669       1.0     0.003249      0.408396      0.193083     Biso  1.000000 C
   C670       1.0     0.050836      0.275876      0.173510     Biso  1.000000 C
   C671       1.0     0.982683      0.192491      0.196782     Biso  1.000000 C
   C672       1.0     0.297096      0.732753      0.837992     Biso  1.000000 C
   C673       1.0     0.980130      0.244757      0.219033     Biso  1.000000 C
   C674       1.0     0.228320      0.269375      0.450721     Biso  1.000000 C
   C675       1.0     0.895292      0.716605      0.298516     Biso  1.000000 C
   C676       1.0     0.196258      0.322229      0.518151     Biso  1.000000 C
   C677       1.0     0.223835      0.354922      0.433049     Biso  1.000000 C
   C678       1.0     0.021572      0.632297      0.274140     Biso  1.000000 C
   C679       1.0     0.020477      0.654807      0.220325     Biso  1.000000 C
   C680       1.0     0.001252      0.715370      0.381463     Biso  1.000000 C
   C681       1.0     0.978463      0.609866      0.284550     Biso  1.000000 C
   C682       1.0     0.068501      0.555610      0.309720     Biso  1.000000 C
   C683       1.0     0.058533      0.595649      0.269399     Biso  1.000000 C
   C684       1.0     0.081629      0.611077      0.439072     Biso  1.000000 C
   C685       1.0     0.036439      0.517980      0.291887     Biso  1.000000 C
   C686       1.0     0.141513      0.502289      0.331542     Biso  1.000000 C
   C687       1.0     0.117965      0.544296      0.304082     Biso  1.000000 C
   C688       1.0     0.079693      0.456161      0.444322     Biso  1.000000 C
   C689       1.0     0.135455      0.460282      0.300395     Biso  1.000000 C
   C690       1.0     0.227518      0.475841      0.352926     Biso  1.000000 C
   C691       1.0     0.190228      0.511724      0.336404     Biso  1.000000 C
   C692       1.0     0.235111      0.413565      0.231981     Biso  1.000000 C
   C693       1.0     0.258446      0.511402      0.381117     Biso  1.000000 C
   C694       1.0     0.241735      0.407607      0.430304     Biso  1.000000 C
   C695       1.0     0.214277      0.431778      0.389067     Biso  1.000000 C
   C696       1.0     0.340270      0.375464      0.353488     Biso  1.000000 C
   C697       1.0     0.233509      0.435010      0.477743     Biso  1.000000 C
   C698       1.0     0.232229      0.318043      0.477657     Biso  1.000000 C
   C699       1.0     0.315310      0.356559      0.572005     Biso  1.000000 C
   C700       1.0     0.032122      0.313220      0.009295     Biso  1.000000 C
   C701       1.0     0.220765      0.220991      0.479419     Biso  1.000000 C
   C702       1.0     0.186526      0.321347      0.978906     Biso  1.000000 C
   C703       1.0     0.705883      0.768262      0.491712     Biso  1.000000 C
   C704       1.0     0.681314      0.877919      0.566175     Biso  1.000000 C
   C705       1.0     0.692467      0.840883      0.525183     Biso  1.000000 C
   C706       1.0     0.718610      0.970735      0.478613     Biso  1.000000 C
   C707       1.0     0.634906      0.866712      0.589706     Biso  1.000000 C
   C708       1.0     0.717146      0.926029      0.649047     Biso  1.000000 C
   C709       1.0     0.716897      0.885493      0.608556     Biso  1.000000 C
   C710       1.0     0.715611      0.053986      0.613279     Biso  1.000000 C
   C711       1.0     0.672289      0.931320      0.674413     Biso  1.000000 C
   C712       1.0     0.756071      0.934485      0.744209     Biso  1.000000 C
   C713       1.0     0.750960      0.912473      0.690167     Biso  1.000000 C
   C714       1.0     0.850199      0.848440      0.757402     Biso  1.000000 C
   C715       1.0     0.755338      0.988917      0.744325     Biso  1.000000 C
   C716       1.0     0.725314      0.917078      0.841965     Biso  1.000000 C
   C717       1.0     0.719295      0.918258      0.781061     Biso  1.000000 C
   C718       1.0     0.759758      0.793133      0.856808     Biso  1.000000 C
   C719       1.0     0.745893      0.963667      0.859968     Biso  1.000000 C
   C720       1.0     0.664389      0.897582      0.920781     Biso  1.000000 C
   C721       1.0     0.676144      0.909726      0.862890     Biso  1.000000 C
   C722       1.0     0.632912      0.772342      0.902730     Biso  1.000000 C
   C723       1.0     0.696458      0.917497      0.960493     Biso  1.000000 C
   C724       1.0     0.815985      0.798316      0.616254     Biso  1.000000 C
   C725       1.0     0.681634      0.766422      0.583066     Biso  1.000000 C
   C726       1.0     0.709812      0.792527      0.542421     Biso  1.000000 C
   C727       1.0     0.699043      0.679459      0.560232     Biso  1.000000 C
   C728       1.0     0.351705      0.725975      0.992106     Biso  1.000000 C
   C729       1.0     0.331100      0.653596      0.857331     Biso  1.000000 C
   C730       1.0     0.110501      0.346581      0.099304     Biso  1.000000 C
   C731       1.0     0.400904      0.627633      0.893868     Biso  1.000000 C
   C732       1.0     0.450482      0.704547      0.818328     Biso  1.000000 C
   C733       1.0     0.402488      0.682514      0.821051     Biso  1.000000 C
   C734       1.0     0.413202      0.830088      0.825345     Biso  1.000000 C
   C735       1.0     0.482593      0.683822      0.856070     Biso  1.000000 C
   C736       1.0     0.491507      0.655727      0.740717     Biso  1.000000 C
   C737       1.0     0.463432      0.696351      0.760916     Biso  1.000000 C
   C738       1.0     0.585764      0.915857      0.974620     Biso  1.000000 C
   C739       1.0     0.591525      0.709004      0.789196     Biso  1.000000 C
   C740       1.0     0.523424      0.642611      0.639692     Biso  1.000000 C
   C741       1.0     0.518855      0.513838      0.618529     Biso  1.000000 C
   C742       1.0     0.500990      0.648555      0.588915     Biso  1.000000 C
   C743       1.0     0.601157      0.677774      0.602127     Biso  1.000000 C
   C744       1.0     0.564656      0.675643      0.644524     Biso  1.000000 C
   C745       1.0     0.654815      0.563596      0.618974     Biso  1.000000 C
   C746       1.0     0.588407      0.705565      0.554782     Biso  1.000000 C
   C747       1.0     0.686118      0.715744      0.600666     Biso  1.000000 C
   C748       1.0     0.641203      0.705699      0.627105     Biso  1.000000 C
   C749       1.0     0.739912      0.747188      0.721479     Biso  1.000000 C
   C750       1.0     0.468890      0.608527      0.750901     Biso  1.000000 C
   C751       1.0     0.617012      0.916937      0.926706     Biso  1.000000 C
   C752       1.0     0.489307      0.663263      0.680860     Biso  1.000000 C
   C753       1.0     0.606937      0.937845      0.022665     Biso  1.000000 C
   C754       1.0     0.176703      0.816456      0.943213     Biso  1.000000 C
   C755       1.0     0.049715      0.839603      0.900937     Biso  1.000000 C
   C756       1.0     0.191912      0.764470      0.870306     Biso  1.000000 C
   C757       1.0     0.120977      0.724138      0.991462     Biso  1.000000 C
   C758       1.0     0.150134      0.730400      0.941970     Biso  1.000000 C
   C759       1.0     0.179207      0.804191      0.082431     Biso  1.000000 C
   C760       1.0     0.074588      0.724951      0.974202     Biso  1.000000 C
   C761       1.0     0.125465      0.649565      0.058414     Biso  1.000000 C
   C762       1.0     0.128476      0.672321      0.005781     Biso  1.000000 C
   C763       1.0     0.239153      0.667809      0.108234     Biso  1.000000 C
   C764       1.0     0.081289      0.659163      0.081708     Biso  1.000000 C
   C765       1.0     0.130848      0.558440      0.093350     Biso  1.000000 C
   C766       1.0     0.225273      0.545732      0.184922     Biso  1.000000 C
   C767       1.0     0.098013      0.569720      0.138277     Biso  1.000000 C
   C768       1.0     0.122670      0.461018      0.093738     Biso  1.000000 C
   C769       1.0     0.116553      0.511281      0.067170     Biso  1.000000 C
   C770       1.0     0.231098      0.438072      0.039300     Biso  1.000000 C
   C771       1.0     0.089558      0.426042      0.066933     Biso  1.000000 C
   C772       1.0     0.591196      0.798066      0.042682     Biso  1.000000 C
   C773       1.0     0.109471      0.459347      0.148947     Biso  1.000000 C
   C774       1.0     0.094201      0.373464      0.052825     Biso  1.000000 C
   C775       1.0     0.156244      0.778030      0.909976     Biso  1.000000 C
   C776       1.0     0.171695      0.880479      0.872332     Biso  1.000000 C
   C777       1.0     0.128347      0.595597      0.048339     Biso  1.000000 C
   C778       1.0     0.245628      0.856727      0.907125     Biso  1.000000 C
   C779       1.0     0.544106      0.944665      0.957965     Biso  1.000000 C
   C780       1.0     0.424921      0.004554      0.981979     Biso  1.000000 C
   C781       1.0     0.469882      0.981091      0.963596     Biso  1.000000 C
   C782       1.0     0.350428      0.934122      0.064048     Biso  1.000000 C
   C783       1.0     0.453128      0.867646      0.054565     Biso  1.000000 C
   C784       1.0     0.434495      0.040672      0.024943     Biso  1.000000 C
   C785       1.0     0.530839      0.014380      0.013761     Biso  1.000000 C
   C786       1.0     0.355401      0.038129      0.930197     Biso  1.000000 C
   C787       1.0     0.405040      0.030137      0.935745     Biso  1.000000 C
   C788       1.0     0.355547      0.073414      0.888772     Biso  1.000000 C
   C789       1.0     0.509643      0.969040      0.993470     Biso  1.000000 C
   C790       1.0     0.295558      0.054353      0.053793     Biso  1.000000 C
   C791       1.0     0.329553      0.992883      0.915309     Biso  1.000000 C
   C792       1.0     0.203027      0.087738      0.873349     Biso  1.000000 C
   C793       1.0     0.296247      0.995211      0.830316     Biso  1.000000 C
   C794       1.0     0.271477      0.894059      0.878309     Biso  1.000000 C
   C795       1.0     0.260291      0.943779      0.898508     Biso  1.000000 C
   C796       1.0     0.285002      0.850959      0.744676     Biso  1.000000 C
   C797       1.0     0.319646      0.882081      0.887668     Biso  1.000000 C
   C798       1.0     0.196196      0.864286      0.922932     Biso  1.000000 C
   C799       1.0     0.286243      0.990734      0.885522     Biso  1.000000 C
   C800       1.0     0.218025      0.931977      0.041368     Biso  1.000000 C
   H1         1.0     0.825921      0.831870      0.599532     Biso  1.000000 H
   H2         1.0     0.710015      0.055768      0.574009     Biso  1.000000 H
   H3         1.0     0.692015      0.078095      0.628916     Biso  1.000000 H
   H4         1.0     0.705993      0.002166      0.495998     Biso  1.000000 H
   H5         1.0     0.702435      0.961425      0.442894     Biso  1.000000 H
   H6         1.0     0.752330      0.980641      0.473299     Biso  1.000000 H
   H7         1.0     0.671927      0.555382      0.652309     Biso  1.000000 H
   H8         1.0     0.823817      0.797983      0.655284     Biso  1.000000 H
   H9         1.0     0.721518      0.757315      0.757477     Biso  1.000000 H
   H10        1.0     0.756743      0.777656      0.709348     Biso  1.000000 H
   H11        1.0     0.764633      0.721349      0.731705     Biso  1.000000 H
   H12        1.0     0.676654      0.562118      0.586045     Biso  1.000000 H
   H13        1.0     0.627313      0.539431      0.609622     Biso  1.000000 H
   H14        1.0     0.546859      0.502489      0.600003     Biso  1.000000 H
   H15        1.0     0.837410      0.771096      0.598730     Biso  1.000000 H
   H16        1.0     0.747208      0.065504      0.625998     Biso  1.000000 H
   H17        1.0     0.596094      0.768968      0.903295     Biso  1.000000 H
   H18        1.0     0.857336      0.819075      0.732899     Biso  1.000000 H
   H19        1.0     0.321239      0.932060      0.038257     Biso  1.000000 H
   H20        1.0     0.340551      0.937347      0.103172     Biso  1.000000 H
   H21        1.0     0.364132      0.896741      0.059480     Biso  1.000000 H
   H22        1.0     0.489627      0.502413      0.602715     Biso  1.000000 H
   H23        1.0     0.297865      0.090949      0.058357     Biso  1.000000 H
   H24        1.0     0.433529      0.843963      0.032713     Biso  1.000000 H
   H25        1.0     0.429829      0.887977      0.075773     Biso  1.000000 H
   H26        1.0     0.472621      0.848343      0.080292     Biso  1.000000 H
   H27        1.0     0.606349      0.773141      0.020669     Biso  1.000000 H
   H28        1.0     0.556872      0.790167      0.042502     Biso  1.000000 H
   H29        1.0     0.604143      0.795928      0.080906     Biso  1.000000 H
   H30        1.0     0.646460      0.757467      0.938343     Biso  1.000000 H
   H31        1.0     0.648618      0.754814      0.869899     Biso  1.000000 H
   H32        1.0     0.794954      0.790212      0.850925     Biso  1.000000 H
   H33        1.0     0.742698      0.765498      0.838180     Biso  1.000000 H
   H34        1.0     0.755974      0.788808      0.898429     Biso  1.000000 H
   H35        1.0     0.876409      0.872182      0.758765     Biso  1.000000 H
   H36        1.0     0.852574      0.837171      0.796804     Biso  1.000000 H
   H37        1.0     0.520432      0.500832      0.655936     Biso  1.000000 H
   H38        1.0     0.942630      0.637829      0.705205     Biso  1.000000 H
   H39        1.0     0.604921      0.742327      0.771755     Biso  1.000000 H
   H40        1.0     0.830292      0.661883      0.824787     Biso  1.000000 H
   H41        1.0     0.817769      0.689351      0.877827     Biso  1.000000 H
   H42        1.0     0.816140      0.630144      0.876547     Biso  1.000000 H
   H43        1.0     0.921137      0.888721      0.941646     Biso  1.000000 H
   H44        1.0     0.870480      0.860114      0.918514     Biso  1.000000 H
   H45        1.0     0.918659      0.858349      0.883537     Biso  1.000000 H
   H46        1.0     0.789500      0.637947      0.183623     Biso  1.000000 H
   H47        1.0     0.899741      0.668768      0.734405     Biso  1.000000 H
   H48        1.0     0.758847      0.639192      0.132549     Biso  1.000000 H
   H49        1.0     0.885243      0.498466      0.877816     Biso  1.000000 H
   H50        1.0     0.882261      0.554617      0.849016     Biso  1.000000 H
   H51        1.0     0.834531      0.527723      0.877006     Biso  1.000000 H
   H52        1.0     0.261532      0.045672      0.044524     Biso  1.000000 H
   H53        1.0     0.927519      0.564430      0.180199     Biso  1.000000 H
   H54        1.0     0.973594      0.529346      0.193795     Biso  1.000000 H
   H55        1.0     0.923871      0.504202      0.176429     Biso  1.000000 H
   H56        1.0     0.781519      0.693929      0.152788     Biso  1.000000 H
   H57        1.0     0.940294      0.696333      0.695538     Biso  1.000000 H
   H58        1.0     0.070346      0.446255      0.908748     Biso  1.000000 H
   H59        1.0     0.040109      0.475554      0.960455     Biso  1.000000 H
   H60        1.0     0.615765      0.683542      0.785807     Biso  1.000000 H
   H61        1.0     0.381250      0.841620      0.816622     Biso  1.000000 H
   H62        1.0     0.430430      0.857104      0.804984     Biso  1.000000 H
   H63        1.0     0.415816      0.836946      0.866536     Biso  1.000000 H
   H64        1.0     0.321100      0.741790      0.987945     Biso  1.000000 H
   H65        1.0     0.375469      0.752347      0.995797     Biso  1.000000 H
   H66        1.0     0.350726      0.707274      0.026981     Biso  1.000000 H
   H67        1.0     0.359721      0.663260      0.689421     Biso  1.000000 H
   H68        1.0     0.322522      0.625404      0.679373     Biso  1.000000 H
   H69        1.0     0.372267      0.608253      0.710712     Biso  1.000000 H
   H70        1.0     0.228539      0.561675      0.980849     Biso  1.000000 H
   H71        1.0     0.237709      0.616775      0.996859     Biso  1.000000 H
   H72        1.0     0.278744      0.582705      0.974895     Biso  1.000000 H
   H73        1.0     0.204002      0.486041      0.937293     Biso  1.000000 H
   H74        1.0     0.194836      0.440608      0.897212     Biso  1.000000 H
   H75        1.0     0.154289      0.461333      0.939752     Biso  1.000000 H
   H76        1.0     0.014290      0.452711      0.906669     Biso  1.000000 H
   H77        1.0     0.582669      0.713007      0.826878     Biso  1.000000 H
   H78        1.0     0.305413      0.037724      0.088431     Biso  1.000000 H
   H79        1.0     0.895547      0.110013      0.329015     Biso  1.000000 H
   H80        1.0     0.211919      0.112476      0.902477     Biso  1.000000 H
   H81        1.0     0.162218      0.932129      0.183227     Biso  1.000000 H
   H82        1.0     0.161504      0.885593      0.146348     Biso  1.000000 H
   H83        1.0     0.198161      0.886209      0.190455     Biso  1.000000 H
   H84        1.0     0.188687      0.009962      0.295243     Biso  1.000000 H
   H85        1.0     0.182742      0.025739      0.362297     Biso  1.000000 H
   H86        1.0     0.135216      0.024739      0.327369     Biso  1.000000 H
   H87        1.0     0.122463      0.981859      0.556130     Biso  1.000000 H
   H88        1.0     0.873682      0.829144      0.246202     Biso  1.000000 H
   H89        1.0     0.079767      0.945232      0.571568     Biso  1.000000 H
   H90        1.0     0.018377      0.115016      0.321881     Biso  1.000000 H
   H91        1.0     0.054384      0.085797      0.285918     Biso  1.000000 H
   H92        1.0     0.069260      0.101408      0.346614     Biso  1.000000 H
   H93        1.0     0.916992      0.119441      0.388766     Biso  1.000000 H
   H94        1.0     0.862768      0.104872      0.384751     Biso  1.000000 H
   H95        1.0     0.856212      0.826569      0.420606     Biso  1.000000 H
   H96        1.0     0.844745      0.806270      0.358297     Biso  1.000000 H
   H97        1.0     0.069018      0.002204      0.558789     Biso  1.000000 H
   H98        1.0     0.801933      0.820836      0.395926     Biso  1.000000 H
   H99        1.0     0.891405      0.851917      0.188421     Biso  1.000000 H
   H100       1.0     0.897415      0.722255      0.338441     Biso  1.000000 H
   H101       1.0     0.357046      0.344107      0.372662     Biso  1.000000 H
   H102       1.0     0.224601      0.441473      0.207636     Biso  1.000000 H
   H103       1.0     0.669317      0.632068      0.357973     Biso  1.000000 H
   H104       1.0     0.220733      0.384498      0.221613     Biso  1.000000 H
   H105       1.0     0.270304      0.407092      0.228170     Biso  1.000000 H
   H106       1.0     0.101904      0.454009      0.477792     Biso  1.000000 H
   H107       1.0     0.065874      0.421305      0.441497     Biso  1.000000 H
   H108       1.0     0.879873      0.790787      0.197980     Biso  1.000000 H
   H109       1.0     0.052006      0.478543      0.453357     Biso  1.000000 H
   H110       1.0     0.078617      0.582695      0.465981     Biso  1.000000 H
   H111       1.0     0.053541      0.631477      0.443975     Biso  1.000000 H
   H112       1.0     0.010600      0.745973      0.360361     Biso  1.000000 H
   H113       1.0     0.029304      0.703662      0.406151     Biso  1.000000 H
   H114       1.0     0.973209      0.716968      0.405752     Biso  1.000000 H
   H115       1.0     0.879825      0.683148      0.290132     Biso  1.000000 H
   H116       1.0     0.869359      0.740617      0.287247     Biso  1.000000 H
   H117       1.0     0.110007      0.631919      0.446604     Biso  1.000000 H
   H118       1.0     0.787157      0.095789      0.775491     Biso  1.000000 H
   H119       1.0     0.818870      0.075192      0.828633     Biso  1.000000 H
   H120       1.0     0.840208      0.121843      0.799825     Biso  1.000000 H
   H121       1.0     0.232614      0.667322      0.150875     Biso  1.000000 H
   H122       1.0     0.252465      0.701748      0.098803     Biso  1.000000 H
   H123       1.0     0.266285      0.641265      0.102426     Biso  1.000000 H
   H124       1.0     0.157792      0.833188      0.079177     Biso  1.000000 H
   H125       1.0     0.211159      0.815892      0.067325     Biso  1.000000 H
   H126       1.0     0.185317      0.794292      0.120436     Biso  1.000000 H
   H127       1.0     0.043137      0.873545      0.914394     Biso  1.000000 H
   H128       1.0     0.228704      0.508520      0.174297     Biso  1.000000 H
   H129       1.0     0.025941      0.818283      0.919004     Biso  1.000000 H
   H130       1.0     0.243444      0.920352      0.067521     Biso  1.000000 H
   H131       1.0     0.190409      0.933908      0.065698     Biso  1.000000 H
   H132       1.0     0.225244      0.964698      0.027866     Biso  1.000000 H
   H133       1.0     0.300663      0.878922      0.725415     Biso  1.000000 H
   H134       1.0     0.252808      0.848381      0.729208     Biso  1.000000 H
   H135       1.0     0.304880      0.822722      0.731709     Biso  1.000000 H
   H136       1.0     0.190225      0.109034      0.846891     Biso  1.000000 H
   H137       1.0     0.048436      0.841278      0.859410     Biso  1.000000 H
   H138       1.0     0.251331      0.568208      0.178640     Biso  1.000000 H
   H139       1.0     0.219641      0.547272      0.225635     Biso  1.000000 H
   H140       1.0     0.238391      0.448967      0.999280     Biso  1.000000 H
   H141       1.0     0.676958      0.233935      0.011615     Biso  1.000000 H
   H142       1.0     0.691262      0.294245      0.015957     Biso  1.000000 H
   H143       1.0     0.721825      0.250754      0.047123     Biso  1.000000 H
   H144       1.0     0.870286      0.108982      0.972951     Biso  1.000000 H
   H145       1.0     0.883954      0.098661      0.035361     Biso  1.000000 H
   H146       1.0     0.916158      0.127379      0.993255     Biso  1.000000 H
   H147       1.0     0.917221      0.422049      0.916977     Biso  1.000000 H
   H148       1.0     0.901563      0.372724      0.876181     Biso  1.000000 H
   H149       1.0     0.954524      0.396255      0.879503     Biso  1.000000 H
   H150       1.0     0.038500      0.284090      0.858254     Biso  1.000000 H
   H151       1.0     0.094298      0.271095      0.863467     Biso  1.000000 H
   H152       1.0     0.071244      0.328886      0.852138     Biso  1.000000 H
   H153       1.0     0.206442      0.350262      0.969746     Biso  1.000000 H
   H154       1.0     0.166822      0.311251      0.946049     Biso  1.000000 H
   H155       1.0     0.207250      0.291325      0.989843     Biso  1.000000 H
   H156       1.0     0.233027      0.400715      0.042151     Biso  1.000000 H
   H157       1.0     0.252158      0.457493      0.065329     Biso  1.000000 H
   H158       1.0     0.177950      0.067739      0.889465     Biso  1.000000 H
   H159       1.0     0.646327      0.439937      0.864495     Biso  1.000000 H
   H160       1.0     0.739357      0.500019      0.255554     Biso  1.000000 H
   H161       1.0     0.636130      0.687981      0.444299     Biso  1.000000 H
   H162       1.0     0.720991      0.401715      0.216641     Biso  1.000000 H
   H163       1.0     0.675217      0.453296      0.077023     Biso  1.000000 H
   H164       1.0     0.664677      0.477097      0.136789     Biso  1.000000 H
   H165       1.0     0.710367      0.483647      0.110456     Biso  1.000000 H
   H166       1.0     0.671992      0.359348      0.186387     Biso  1.000000 H
   H167       1.0     0.675123      0.336422      0.126809     Biso  1.000000 H
   H168       1.0     0.597913      0.454393      0.143625     Biso  1.000000 H
   H169       1.0     0.696758      0.454050      0.205915     Biso  1.000000 H
   H170       1.0     0.565295      0.410752      0.173077     Biso  1.000000 H
   H171       1.0     0.554552      0.340778      0.131618     Biso  1.000000 H
   H172       1.0     0.572814      0.341055      0.187095     Biso  1.000000 H
   H173       1.0     0.633901      0.237052      0.089704     Biso  1.000000 H
   H174       1.0     0.589483      0.271181      0.059683     Biso  1.000000 H
   H175       1.0     0.640056      0.292865      0.074620     Biso  1.000000 H
   H176       1.0     0.536106      0.269019      0.113842     Biso  1.000000 H
   H177       1.0     0.532277      0.279641      0.173838     Biso  1.000000 H
   H178       1.0     0.614844      0.418983      0.197738     Biso  1.000000 H
   H179       1.0     0.580071      0.187647      0.087538     Biso  1.000000 H
   H180       1.0     0.816092      0.501268      0.156622     Biso  1.000000 H
   H181       1.0     0.778117      0.475654      0.117841     Biso  1.000000 H
   H182       1.0     0.779845      0.513838      0.517248     Biso  1.000000 H
   H183       1.0     0.835581      0.520343      0.505862     Biso  1.000000 H
   H184       1.0     0.735066      0.617311      0.496432     Biso  1.000000 H
   H185       1.0     0.729870      0.599721      0.434921     Biso  1.000000 H
   H186       1.0     0.722245      0.557742      0.482896     Biso  1.000000 H
   H187       1.0     0.765073      0.524830      0.415717     Biso  1.000000 H
   H188       1.0     0.818647      0.517111      0.425298     Biso  1.000000 H
   H189       1.0     0.764394      0.523159      0.157504     Biso  1.000000 H
   H190       1.0     0.736772      0.600897      0.353804     Biso  1.000000 H
   H191       1.0     0.781064      0.628671      0.316906     Biso  1.000000 H
   H192       1.0     0.753370      0.531363      0.323248     Biso  1.000000 H
   H193       1.0     0.784760      0.496369      0.346689     Biso  1.000000 H
   H194       1.0     0.773067      0.574149      0.239062     Biso  1.000000 H
   H195       1.0     0.822434      0.585957      0.265742     Biso  1.000000 H
   H196       1.0     0.819413      0.554385      0.207851     Biso  1.000000 H
   H197       1.0     0.764194      0.455192      0.281500     Biso  1.000000 H
   H198       1.0     0.779819      0.634857      0.382435     Biso  1.000000 H
   H199       1.0     0.612686      0.179524      0.139640     Biso  1.000000 H
   H200       1.0     0.571253      0.143523      0.135701     Biso  1.000000 H
   H201       1.0     0.496483      0.203003      0.104468     Biso  1.000000 H
   H202       1.0     0.272556      0.935479      0.383060     Biso  1.000000 H
   H203       1.0     0.324079      0.924268      0.409842     Biso  1.000000 H
   H204       1.0     0.301584      0.973680      0.424059     Biso  1.000000 H
   H205       1.0     0.342409      0.892907      0.325568     Biso  1.000000 H
   H206       1.0     0.362419      0.925853      0.281974     Biso  1.000000 H
   H207       1.0     0.231648      0.886703      0.269030     Biso  1.000000 H
   H208       1.0     0.257900      0.878365      0.324875     Biso  1.000000 H
   H209       1.0     0.384345      0.997664      0.310756     Biso  1.000000 H
   H210       1.0     0.246378      0.932627      0.310481     Biso  1.000000 H
   H211       1.0     0.306424      0.862501      0.201309     Biso  1.000000 H
   H212       1.0     0.354367      0.804928      0.326050     Biso  1.000000 H
   H213       1.0     0.301888      0.821926      0.343955     Biso  1.000000 H
   H214       1.0     0.309520      0.765948      0.333700     Biso  1.000000 H
   H215       1.0     0.312657      0.734860      0.235277     Biso  1.000000 H
   H216       1.0     0.341595      0.369032      0.312842     Biso  1.000000 H
   H217       1.0     0.361463      0.764477      0.246078     Biso  1.000000 H
   H218       1.0     0.350264      0.857979      0.239615     Biso  1.000000 H
   H219       1.0     0.390865      0.965113      0.368556     Biso  1.000000 H
   H220       1.0     0.447484      0.012546      0.402614     Biso  1.000000 H
   H221       1.0     0.450453      0.071268      0.381429     Biso  1.000000 H
   H222       1.0     0.474857      0.226468      0.161579     Biso  1.000000 H
   H223       1.0     0.436243      0.168317      0.085339     Biso  1.000000 H
   H224       1.0     0.407570      0.129046      0.129724     Biso  1.000000 H
   H225       1.0     0.402287      0.191246      0.134541     Biso  1.000000 H
   H226       1.0     0.449309      0.196418      0.231827     Biso  1.000000 H
   H227       1.0     0.482644      0.146246      0.237969     Biso  1.000000 H
   H228       1.0     0.346684      0.134852      0.249057     Biso  1.000000 H
   H229       1.0     0.368174      0.190879      0.233815     Biso  1.000000 H
   H230       1.0     0.362991      0.151799      0.189615     Biso  1.000000 H
   H231       1.0     0.434857      0.173649      0.309155     Biso  1.000000 H
   H232       1.0     0.446007      0.117995      0.315678     Biso  1.000000 H
   H233       1.0     0.381143      0.159407      0.426421     Biso  1.000000 H
   H234       1.0     0.420294      0.120023      0.424221     Biso  1.000000 H
   H235       1.0     0.430847      0.174939      0.394374     Biso  1.000000 H
   H236       1.0     0.368287      0.071459      0.307686     Biso  1.000000 H
   H237       1.0     0.335398      0.077510      0.354147     Biso  1.000000 H
   H238       1.0     0.451710      0.028562      0.341865     Biso  1.000000 H
   H239       1.0     0.761457      0.603368      0.570864     Biso  1.000000 H
   H240       1.0     0.669100      0.640753      0.451244     Biso  1.000000 H
   H241       1.0     0.771057      0.578723      0.631715     Biso  1.000000 H
   H242       1.0     0.850354      0.493369      0.590019     Biso  1.000000 H
   H243       1.0     0.518845      0.384567      0.333881     Biso  1.000000 H
   H244       1.0     0.602320      0.345709      0.410030     Biso  1.000000 H
   H245       1.0     0.553812      0.363340      0.425219     Biso  1.000000 H
   H246       1.0     0.593066      0.464534      0.480161     Biso  1.000000 H
   H247       1.0     0.541049      0.432107      0.489053     Biso  1.000000 H
   H248       1.0     0.581864      0.437003      0.534030     Biso  1.000000 H
   H249       1.0     0.660735      0.399462      0.445489     Biso  1.000000 H
   H250       1.0     0.559298      0.343384      0.339869     Biso  1.000000 H
   H251       1.0     0.662602      0.359282      0.490082     Biso  1.000000 H
   H252       1.0     0.659258      0.483162      0.477642     Biso  1.000000 H
   H253       1.0     0.635652      0.492383      0.536116     Biso  1.000000 H
   H254       1.0     0.738827      0.449189      0.525759     Biso  1.000000 H
   H255       1.0     0.725831      0.441445      0.469183     Biso  1.000000 H
   H256       1.0     0.712439      0.331838      0.556334     Biso  1.000000 H
   H257       1.0     0.769949      0.324866      0.560273     Biso  1.000000 H
   H258       1.0     0.754530      0.371046      0.583281     Biso  1.000000 H
   H259       1.0     0.687062      0.502386      0.522528     Biso  1.000000 H
   H260       1.0     0.807655      0.403711      0.534429     Biso  1.000000 H
   H261       1.0     0.564668      0.390003      0.294866     Biso  1.000000 H
   H262       1.0     0.521440      0.439567      0.394268     Biso  1.000000 H
   H263       1.0     0.613600      0.632432      0.428161     Biso  1.000000 H
   H264       1.0     0.613765      0.713384      0.327998     Biso  1.000000 H
   H265       1.0     0.588013      0.686199      0.371611     Biso  1.000000 H
   H266       1.0     0.531427      0.650025      0.260529     Biso  1.000000 H
   H267       1.0     0.528975      0.657014      0.324883     Biso  1.000000 H
   H268       1.0     0.547292      0.702572      0.286317     Biso  1.000000 H
   H269       1.0     0.573745      0.591071      0.342140     Biso  1.000000 H
   H270       1.0     0.565886      0.474671      0.409721     Biso  1.000000 H
   H271       1.0     0.625041      0.584940      0.336604     Biso  1.000000 H
   H272       1.0     0.540093      0.592047      0.223130     Biso  1.000000 H
   H273       1.0     0.534164      0.533235      0.231232     Biso  1.000000 H
   H274       1.0     0.606918      0.509385      0.339549     Biso  1.000000 H
   H275       1.0     0.588692      0.482664      0.286287     Biso  1.000000 H
   H276       1.0     0.542629      0.546382      0.401470     Biso  1.000000 H
   H277       1.0     0.502383      0.559592      0.356113     Biso  1.000000 H
   H278       1.0     0.496176      0.516658      0.400920     Biso  1.000000 H
   H279       1.0     0.515488      0.570993      0.279974     Biso  1.000000 H
   H280       1.0     0.803633      0.425374      0.476143     Biso  1.000000 H
   H281       1.0     0.822153      0.330139      0.409774     Biso  1.000000 H
   H282       1.0     0.833410      0.389200      0.405782     Biso  1.000000 H
   H283       1.0     0.925196      0.299414      0.658041     Biso  1.000000 H
   H284       1.0     0.946091      0.277136      0.714312     Biso  1.000000 H
   H285       1.0     0.861718      0.319873      0.782591     Biso  1.000000 H
   H286       1.0     0.914711      0.315617      0.801327     Biso  1.000000 H
   H287       1.0     0.889043      0.368015      0.797757     Biso  1.000000 H
   H288       1.0     0.866335      0.350809      0.664745     Biso  1.000000 H
   H289       1.0     0.909250      0.384976      0.660466     Biso  1.000000 H
   H290       1.0     0.833863      0.280350      0.646682     Biso  1.000000 H
   H291       1.0     0.825539      0.367070      0.746382     Biso  1.000000 H
   H292       1.0     0.796893      0.379838      0.693937     Biso  1.000000 H
   H293       1.0     0.830819      0.425322      0.629888     Biso  1.000000 H
   H294       1.0     0.877023      0.453479      0.640614     Biso  1.000000 H
   H295       1.0     0.744274      0.502441      0.657521     Biso  1.000000 H
   H296       1.0     0.761519      0.444034      0.661287     Biso  1.000000 H
   H297       1.0     0.765234      0.480304      0.712335     Biso  1.000000 H
   H298       1.0     0.797852      0.477038      0.584498     Biso  1.000000 H
   H299       1.0     0.799229      0.418143      0.746536     Biso  1.000000 H
   H300       1.0     0.822392      0.289028      0.711676     Biso  1.000000 H
   H301       1.0     0.817093      0.234793      0.691101     Biso  1.000000 H
   H302       1.0     0.932540      0.204100      0.669946     Biso  1.000000 H
   H303       1.0     0.878448      0.350684      0.412041     Biso  1.000000 H
   H304       1.0     0.809969      0.297920      0.499139     Biso  1.000000 H
   H305       1.0     0.845662      0.317053      0.547441     Biso  1.000000 H
   H306       1.0     0.821898      0.249041      0.437124     Biso  1.000000 H
   H307       1.0     0.864267      0.268763      0.406456     Biso  1.000000 H
   H308       1.0     0.873986      0.215680      0.429856     Biso  1.000000 H
   H309       1.0     0.873039      0.253805      0.568197     Biso  1.000000 H
   H310       1.0     0.902139      0.216133      0.527910     Biso  1.000000 H
   H311       1.0     0.786295      0.231561      0.497972     Biso  1.000000 H
   H312       1.0     0.761047      0.198875      0.546078     Biso  1.000000 H
   H313       1.0     0.785248      0.248771      0.565674     Biso  1.000000 H
   H314       1.0     0.819869      0.150664      0.601913     Biso  1.000000 H
   H315       1.0     0.815003      0.205567      0.622638     Biso  1.000000 H
   H316       1.0     0.889263      0.142609      0.709879     Biso  1.000000 H
   H317       1.0     0.838040      0.159767      0.698200     Biso  1.000000 H
   H318       1.0     0.850112      0.109435      0.671803     Biso  1.000000 H
   H319       1.0     0.917056      0.233329      0.620861     Biso  1.000000 H
   H320       1.0     0.740145      0.546908      0.589721     Biso  1.000000 H
   H321       1.0     0.360261      0.403694      0.356414     Biso  1.000000 H
   H322       1.0     0.334431      0.688016      0.378171     Biso  1.000000 H
   H323       1.0     0.341016      0.330530      0.573086     Biso  1.000000 H
   H324       1.0     0.465267      0.695396      0.305668     Biso  1.000000 H
   H325       1.0     0.429852      0.743077      0.299540     Biso  1.000000 H
   H326       1.0     0.358299      0.473381      0.139207     Biso  1.000000 H
   H327       1.0     0.312512      0.495026      0.170727     Biso  1.000000 H
   H328       1.0     0.353042      0.465824      0.204092     Biso  1.000000 H
   H329       1.0     0.361589      0.515014      0.005502     Biso  1.000000 H
   H330       1.0     0.389854      0.530851      0.956308     Biso  1.000000 H
   H331       1.0     0.482744      0.749883      0.282667     Biso  1.000000 H
   H332       1.0     0.353078      0.570543      0.983248     Biso  1.000000 H
   H333       1.0     0.505675      0.742797      0.992227     Biso  1.000000 H
   H334       1.0     0.469403      0.730068      0.039308     Biso  1.000000 H
   H335       1.0     0.735961      0.643652      0.951766     Biso  1.000000 H
   H336       1.0     0.724310      0.699506      0.965863     Biso  1.000000 H
   H337       1.0     0.732374      0.684293      0.901992     Biso  1.000000 H
   H338       1.0     0.520173      0.462337      0.958794     Biso  1.000000 H
   H339       1.0     0.565108      0.423475      0.966903     Biso  1.000000 H
   H340       1.0     0.451413      0.729805      0.973512     Biso  1.000000 H
   H341       1.0     0.548093      0.429647      0.907611     Biso  1.000000 H
   H342       1.0     0.450724      0.848170      0.159477     Biso  1.000000 H
   H343       1.0     0.448812      0.862678      0.219827     Biso  1.000000 H
   H344       1.0     0.357463      0.019978      0.156668     Biso  1.000000 H
   H345       1.0     0.339672      0.278260      0.324310     Biso  1.000000 H
   H346       1.0     0.334309      0.259836      0.387169     Biso  1.000000 H
   H347       1.0     0.297487      0.239208      0.344471     Biso  1.000000 H
   H348       1.0     0.363902      0.074746      0.525575     Biso  1.000000 H
   H349       1.0     0.315433      0.047544      0.509365     Biso  1.000000 H
   H350       1.0     0.320751      0.110072      0.502360     Biso  1.000000 H
   H351       1.0     0.410930      0.888205      0.178851     Biso  1.000000 H
   H352       1.0     0.249700      0.045035      0.248696     Biso  1.000000 H
   H353       1.0     0.275962      0.087842      0.282547     Biso  1.000000 H
   H354       1.0     0.262989      0.960760      0.138767     Biso  1.000000 H
   H355       1.0     0.266986      0.018397      0.176244     Biso  1.000000 H
   H356       1.0     0.218058      0.991225      0.163669     Biso  1.000000 H
   H357       1.0     0.213272      0.694455      0.286927     Biso  1.000000 H
   H358       1.0     0.196610      0.730241      0.237209     Biso  1.000000 H
   H359       1.0     0.181013      0.741894      0.299593     Biso  1.000000 H
   H360       1.0     0.296835      0.071774      0.221989     Biso  1.000000 H
   H361       1.0     0.417861      0.021317      0.145862     Biso  1.000000 H
   H362       1.0     0.777332      0.481896      0.905698     Biso  1.000000 H
   H363       1.0     0.758398      0.425955      0.923764     Biso  1.000000 H
   H364       1.0     0.229573      0.175503      0.870344     Biso  1.000000 H
   H365       1.0     0.230966      0.238903      0.862382     Biso  1.000000 H
   H366       1.0     0.281451      0.201363      0.862344     Biso  1.000000 H
   H367       1.0     0.059102      0.118234      0.584957     Biso  1.000000 H
   H368       1.0     0.065877      0.174517      0.601265     Biso  1.000000 H
   H369       1.0     0.024083      0.133652      0.630736     Biso  1.000000 H
   H370       1.0     0.327249      0.103557      0.697157     Biso  1.000000 H
   H371       1.0     0.044520      0.255909      0.600286     Biso  1.000000 H
   H372       1.0     0.326761      0.040008      0.709183     Biso  1.000000 H
   H373       1.0     0.107232      0.873964      0.688453     Biso  1.000000 H
   H374       1.0     0.115998      0.899104      0.747546     Biso  1.000000 H
   H375       1.0     0.142240      0.853920      0.739008     Biso  1.000000 H
   H376       1.0     0.220798      0.991658      0.447986     Biso  1.000000 H
   H377       1.0     0.163217      0.986575      0.445293     Biso  1.000000 H
   H378       1.0     0.193069      0.946329      0.420647     Biso  1.000000 H
   H379       1.0     0.352955      0.755194      0.472030     Biso  1.000000 H
   H380       1.0     0.303672      0.079517      0.753372     Biso  1.000000 H
   H381       1.0     0.792324      0.428481      0.871794     Biso  1.000000 H
   H382       1.0     0.026697      0.245384      0.658387     Biso  1.000000 H
   H383       1.0     0.059341      0.428557      0.575749     Biso  1.000000 H
   H384       1.0     0.353159      0.650108      0.331866     Biso  1.000000 H
   H385       1.0     0.382028      0.705661      0.342844     Biso  1.000000 H
   H386       1.0     0.455865      0.395598      0.471043     Biso  1.000000 H
   H387       1.0     0.410142      0.399618      0.513993     Biso  1.000000 H
   H388       1.0     0.457949      0.431163      0.519978     Biso  1.000000 H
   H389       1.0     0.323065      0.666640      0.528241     Biso  1.000000 H
   H390       1.0     0.357430      0.654814      0.578626     Biso  1.000000 H
   H391       1.0     0.029127      0.302805      0.637669     Biso  1.000000 H
   H392       1.0     0.301516      0.656181      0.585503     Biso  1.000000 H
   H393       1.0     0.230442      0.641919      0.686999     Biso  1.000000 H
   H394       1.0     0.187685      0.604745      0.657084     Biso  1.000000 H
   H395       1.0     0.111681      0.547998      0.620032     Biso  1.000000 H
   H396       1.0     0.110014      0.565122      0.681169     Biso  1.000000 H
   H397       1.0     0.084986      0.511755      0.665818     Biso  1.000000 H
   H398       1.0     0.028988      0.434294      0.627836     Biso  1.000000 H
   H399       1.0     0.032555      0.381021      0.602368     Biso  1.000000 H
   H400       1.0     0.226927      0.639867      0.620793     Biso  1.000000 H
   H401       1.0     0.396475      0.994391      0.199588     Biso  1.000000 H
   H402       1.0     0.544015      0.027303      0.200782     Biso  1.000000 H
   H403       1.0     0.511585      0.017715      0.152449     Biso  1.000000 H
   H404       1.0     0.620317      0.328388      0.631519     Biso  1.000000 H
   H405       1.0     0.627762      0.383813      0.658380     Biso  1.000000 H
   H406       1.0     0.752223      0.309763      0.356708     Biso  1.000000 H
   H407       1.0     0.742139      0.365859      0.334201     Biso  1.000000 H
   H408       1.0     0.703731      0.328890      0.360045     Biso  1.000000 H
   H409       1.0     0.920749      0.480585      0.506235     Biso  1.000000 H
   H410       1.0     0.951593      0.466253      0.450284     Biso  1.000000 H
   H411       1.0     0.670309      0.341363      0.654527     Biso  1.000000 H
   H412       1.0     0.960188      0.435394      0.502589     Biso  1.000000 H
   H413       1.0     0.989394      0.329284      0.507794     Biso  1.000000 H
   H414       1.0     0.997071      0.274575      0.536862     Biso  1.000000 H
   H415       1.0     0.771516      0.067954      0.490549     Biso  1.000000 H
   H416       1.0     0.826967      0.060944      0.494654     Biso  1.000000 H
   H417       1.0     0.798634      0.091748      0.441580     Biso  1.000000 H
   H418       1.0     0.952902      0.060999      0.582012     Biso  1.000000 H
   H419       1.0     0.928646      0.081666      0.522087     Biso  1.000000 H
   H420       1.0     0.982638      0.329665      0.571474     Biso  1.000000 H
   H421       1.0     0.905780      0.034205      0.561136     Biso  1.000000 H
   H422       1.0     0.588171      0.247373      0.533668     Biso  1.000000 H
   H423       1.0     0.564688      0.281111      0.572536     Biso  1.000000 H
   H424       1.0     0.282165      0.810522      0.152031     Biso  1.000000 H
   H425       1.0     0.771929      0.724947      0.325629     Biso  1.000000 H
   H426       1.0     0.739092      0.776082      0.329738     Biso  1.000000 H
   H427       1.0     0.739906      0.743984      0.272939     Biso  1.000000 H
   H428       1.0     0.710002      0.686763      0.222679     Biso  1.000000 H
   H429       1.0     0.681549      0.659080      0.180071     Biso  1.000000 H
   H430       1.0     0.719838      0.626383      0.210962     Biso  1.000000 H
   H431       1.0     0.619694      0.272911      0.581044     Biso  1.000000 H
   H432       1.0     0.625671      0.547237      0.113879     Biso  1.000000 H
   H433       1.0     0.644340      0.600631      0.134997     Biso  1.000000 H
   H434       1.0     0.397945      0.478401      0.314616     Biso  1.000000 H
   H435       1.0     0.428646      0.432996      0.294350     Biso  1.000000 H
   H436       1.0     0.422249      0.484792      0.256330     Biso  1.000000 H
   H437       1.0     0.689243      0.510506      0.380345     Biso  1.000000 H
   H438       1.0     0.686496      0.468707      0.324853     Biso  1.000000 H
   H439       1.0     0.710319      0.454081      0.381896     Biso  1.000000 H
   H440       1.0     0.670826      0.556292      0.155176     Biso  1.000000 H
   H441       1.0     0.920759      0.212220      0.840466     Biso  1.000000 H
   H442       1.0     0.966708      0.189647      0.816385     Biso  1.000000 H
   H443       1.0     0.919493      0.155671      0.814728     Biso  1.000000 H
   H444       1.0     0.870270      0.365627      0.121498     Biso  1.000000 H
   H445       1.0     0.844635      0.344736      0.171360     Biso  1.000000 H
   H446       1.0     0.887175      0.379519      0.181645     Biso  1.000000 H
   H447       1.0     0.790001      0.372669      0.024525     Biso  1.000000 H
   H448       1.0     0.821129      0.411731      0.064858     Biso  1.000000 H
   H449       1.0     0.795681      0.427948      0.003570     Biso  1.000000 H
   H450       1.0     0.685572      0.377239      0.988713     Biso  1.000000 H
   H451       1.0     0.893282      0.405375      0.285503     Biso  1.000000 H
   H452       1.0     0.633891      0.406770      0.988521     Biso  1.000000 H
   H453       1.0     0.641129      0.314790      0.286720     Biso  1.000000 H
   H454       1.0     0.655278      0.259698      0.281839     Biso  1.000000 H
   H455       1.0     0.606663      0.270420      0.311679     Biso  1.000000 H
   H456       1.0     0.504050      0.238516      0.319802     Biso  1.000000 H
   H457       1.0     0.556032      0.220233      0.310891     Biso  1.000000 H
   H458       1.0     0.515201      0.179108      0.305385     Biso  1.000000 H
   H459       1.0     0.558869      0.048381      0.140710     Biso  1.000000 H
   H460       1.0     0.632960      0.344716      0.982525     Biso  1.000000 H
   H461       1.0     0.914413      0.454386      0.319633     Biso  1.000000 H
   H462       1.0     0.883469      0.406372      0.345846     Biso  1.000000 H
   H463       1.0     0.931221      0.528332      0.409800     Biso  1.000000 H
   H464       1.0     0.020419      0.409060      0.816249     Biso  1.000000 H
   H465       1.0     0.020228      0.415994      0.747079     Biso  1.000000 H
   H466       1.0     0.042823      0.366247      0.771096     Biso  1.000000 H
   H467       1.0     0.978641      0.476907      0.743591     Biso  1.000000 H
   H468       1.0     0.953516      0.458399      0.799813     Biso  1.000000 H
   H469       1.0     0.942055      0.514886      0.778391     Biso  1.000000 H
   H470       1.0     0.801503      0.594856      0.778655     Biso  1.000000 H
   H471       1.0     0.829946      0.621325      0.731140     Biso  1.000000 H
   H472       1.0     0.856477      0.580809      0.769819     Biso  1.000000 H
   H473       1.0     0.931334      0.600728      0.609279     Biso  1.000000 H
   H474       1.0     0.923286      0.636933      0.555128     Biso  1.000000 H
   H475       1.0     0.952385      0.588262      0.545543     Biso  1.000000 H
   H476       1.0     0.858361      0.695455      0.469239     Biso  1.000000 H
   H477       1.0     0.828043      0.700326      0.527985     Biso  1.000000 H
   H478       1.0     0.814483      0.728881      0.478391     Biso  1.000000 H
   H479       1.0     0.934462      0.584933      0.382774     Biso  1.000000 H
   H480       1.0     0.936417      0.532522      0.347398     Biso  1.000000 H
   H481       1.0     0.372225      0.811612      0.460385     Biso  1.000000 H
   H482       1.0     0.345575      0.779123      0.411552     Biso  1.000000 H
   H483       1.0     0.273710      0.644787      0.465797     Biso  1.000000 H
   H484       1.0     0.266420      0.679252      0.410855     Biso  1.000000 H
   H485       1.0     0.362610      0.015048      0.616352     Biso  1.000000 H
   H486       1.0     0.338525      0.971106      0.577221     Biso  1.000000 H
   H487       1.0     0.334877      0.787583      0.589062     Biso  1.000000 H
   H488       1.0     0.341314      0.767321      0.648765     Biso  1.000000 H
   H489       1.0     0.368132      0.741268      0.593382     Biso  1.000000 H
   H490       1.0     0.374406      0.897554      0.513922     Biso  1.000000 H
   H491       1.0     0.402045      0.910082      0.455255     Biso  1.000000 H
   H492       1.0     0.387218      0.003692      0.556002     Biso  1.000000 H
   H493       1.0     0.421797      0.933005      0.513873     Biso  1.000000 H
   H494       1.0     0.452579      0.832891      0.328758     Biso  1.000000 H
   H495       1.0     0.425222      0.869701      0.367287     Biso  1.000000 H
   H496       1.0     0.703501      0.871698      0.358075     Biso  1.000000 H
   H497       1.0     0.698622      0.816082      0.388269     Biso  1.000000 H
   H498       1.0     0.707285      0.870016      0.422244     Biso  1.000000 H
   H499       1.0     0.480790      0.957951      0.219971     Biso  1.000000 H
   H500       1.0     0.497168      0.992488      0.273670     Biso  1.000000 H
   H501       1.0     0.419486      0.811605      0.375448     Biso  1.000000 H
   H502       1.0     0.454825      0.959653      0.273274     Biso  1.000000 H
   H503       1.0     0.570113      0.020006      0.571952     Biso  1.000000 H
   H504       1.0     0.579667      0.962342      0.581654     Biso  1.000000 H
   H505       1.0     0.712884      0.231326      0.626894     Biso  1.000000 H
   H506       1.0     0.503097      0.359770      0.875018     Biso  1.000000 H
   H507       1.0     0.486861      0.336031      0.815327     Biso  1.000000 H
   H508       1.0     0.514638      0.393214      0.821172     Biso  1.000000 H
   H509       1.0     0.469226      0.244827      0.773905     Biso  1.000000 H
   H510       1.0     0.455355      0.206650      0.825431     Biso  1.000000 H
   H511       1.0     0.476353      0.187232      0.766964     Biso  1.000000 H
   H512       1.0     0.606915      0.001505      0.620597     Biso  1.000000 H
   H513       1.0     0.437703      0.178032      0.936502     Biso  1.000000 H
   H514       1.0     0.451364      0.155010      0.000445     Biso  1.000000 H
   H515       1.0     0.678942      0.145640      0.786368     Biso  1.000000 H
   H516       1.0     0.660683      0.137319      0.721570     Biso  1.000000 H
   H517       1.0     0.691055      0.092942      0.758886     Biso  1.000000 H
   H518       1.0     0.574394      0.832967      0.808672     Biso  1.000000 H
   H519       1.0     0.521976      0.841378      0.786428     Biso  1.000000 H
   H520       1.0     0.531679      0.853817      0.847837     Biso  1.000000 H
   H521       1.0     0.461074      0.212781      0.985380     Biso  1.000000 H
   H522       1.0     0.615328      0.962231      0.134545     Biso  1.000000 H
   H523       1.0     0.671291      0.962435      0.122915     Biso  1.000000 H
   H524       1.0     0.649904      0.995256      0.175024     Biso  1.000000 H
   H525       1.0     0.004112      0.420824      0.232576     Biso  1.000000 H
   H526       1.0     0.972246      0.415714      0.176629     Biso  1.000000 H
   H527       1.0     0.025262      0.433740      0.177148     Biso  1.000000 H
   H528       1.0     0.993681      0.377232      0.394498     Biso  1.000000 H
   H529       1.0     0.946013      0.349854      0.378266     Biso  1.000000 H
   H530       1.0     0.969406      0.389861      0.336807     Biso  1.000000 H
   H531       1.0     0.993568      0.152674      0.390314     Biso  1.000000 H
   H532       1.0     0.950029      0.136703      0.073935     Biso  1.000000 H
   H533       1.0     0.964776      0.198505      0.367347     Biso  1.000000 H
   H534       1.0     0.088937      0.064570      0.499975     Biso  1.000000 H
   H535       1.0     0.146366      0.058294      0.490481     Biso  1.000000 H
   H536       1.0     0.112980      0.067923      0.434055     Biso  1.000000 H
   H537       1.0     0.264362      0.096831      0.413514     Biso  1.000000 H
   H538       1.0     0.207030      0.092852      0.428270     Biso  1.000000 H
   H539       1.0     0.246152      0.066611      0.465887     Biso  1.000000 H
   H540       1.0     0.330422      0.387564      0.556315     Biso  1.000000 H
   H541       1.0     0.957632      0.187793      0.433049     Biso  1.000000 H
   H542       1.0     0.000984      0.155657      0.047496     Biso  1.000000 H
   H543       1.0     0.985785      0.095405      0.069415     Biso  1.000000 H
   H544       1.0     0.897815      0.285049      0.305751     Biso  1.000000 H
   H545       1.0     0.683782      0.749125      0.103349     Biso  1.000000 H
   H546       1.0     0.741664      0.755910      0.084006     Biso  1.000000 H
   H547       1.0     0.698878      0.785043      0.049616     Biso  1.000000 H
   H548       1.0     0.820544      0.828241      0.003043     Biso  1.000000 H
   H549       1.0     0.765525      0.824386      0.988962     Biso  1.000000 H
   H550       1.0     0.787545      0.795260      0.042144     Biso  1.000000 H
   H551       1.0     0.711599      0.038385      0.919358     Biso  1.000000 H
   H552       1.0     0.762194      0.064248      0.905679     Biso  1.000000 H
   H553       1.0     0.729302      0.081631      0.955770     Biso  1.000000 H
   H554       1.0     0.657245      0.069739      0.146427     Biso  1.000000 H
   H555       1.0     0.650528      0.119365      0.105473     Biso  1.000000 H
   H556       1.0     0.661058      0.126161      0.172885     Biso  1.000000 H
   H557       1.0     0.972285      0.034769      0.200021     Biso  1.000000 H
   H558       1.0     0.941399      0.997973      0.162027     Biso  1.000000 H
   H559       1.0     0.946521      0.985395      0.225127     Biso  1.000000 H
   H560       1.0     0.841071      0.289498      0.297939     Biso  1.000000 H
   H561       1.0     0.878949      0.321759      0.256439     Biso  1.000000 H
   H562       1.0     0.746662      0.195270      0.658523     Biso  1.000000 H
   H563       1.0     0.308069      0.364586      0.612134     Biso  1.000000 H
   H564       1.0     0.694286      0.181973      0.661660     Biso  1.000000 H
   H565       1.0     0.772866      0.302442      0.245532     Biso  1.000000 H
   H566       1.0     0.845569      0.964528      0.905494     Biso  1.000000 H
   H567       1.0     0.843653      0.009899      0.856330     Biso  1.000000 H
   H568       1.0     0.977823      0.885084      0.084088     Biso  1.000000 H
   H569       1.0     0.924491      0.869649      0.062805     Biso  1.000000 H
   H570       1.0     0.927890      0.900786      0.115322     Biso  1.000000 H
   H571       1.0     0.107584      0.872833      0.032638     Biso  1.000000 H
   H572       1.0     0.054055      0.863373      0.017965     Biso  1.000000 H
   H573       1.0     0.843824      0.020442      0.926487     Biso  1.000000 H
   H574       1.0     0.071942      0.877012      0.082650     Biso  1.000000 H
   H575       1.0     0.089755      0.190543      0.937744     Biso  1.000000 H
   H576       1.0     0.089015      0.146723      0.889190     Biso  1.000000 H
   H577       1.0     0.129048      0.083389      0.238301     Biso  1.000000 H
   H578       1.0     0.164331      0.037032      0.221556     Biso  1.000000 H
   H579       1.0     0.108469      0.041637      0.201113     Biso  1.000000 H
   H580       1.0     0.185243      0.153650      0.319109     Biso  1.000000 H
   H581       1.0     0.237224      0.153584      0.292621     Biso  1.000000 H
   H582       1.0     0.133184      0.179863      0.895118     Biso  1.000000 H
   H583       1.0     0.200636      0.109107      0.279398     Biso  1.000000 H
   H584       1.0     0.128515      0.967739      0.872167     Biso  1.000000 H
   H585       1.0     0.124786      0.027465      0.871327     Biso  1.000000 H
   H586       1.0     0.232552      0.629677      0.421167     Biso  1.000000 H
   H587       1.0     0.227838      0.727179      0.680883     Biso  1.000000 H
   H588       1.0     0.182997      0.742022      0.714271     Biso  1.000000 H
   H589       1.0     0.214342      0.785521      0.684653     Biso  1.000000 H
   H590       1.0     0.107022      0.724082      0.743124     Biso  1.000000 H
   H591       1.0     0.059767      0.754322      0.760008     Biso  1.000000 H
   H592       1.0     0.103277      0.786732      0.752555     Biso  1.000000 H
   H593       1.0     0.134150      0.999298      0.816475     Biso  1.000000 H
   H594       1.0     0.942983      0.818511      0.758042     Biso  1.000000 H
   H595       1.0     0.964854      0.761294      0.753794     Biso  1.000000 H
   H596       1.0     0.850822      0.924293      0.651796     Biso  1.000000 H
   H597       1.0     0.844890      0.968763      0.605069     Biso  1.000000 H
   H598       1.0     0.858587      0.983814      0.666831     Biso  1.000000 H
   H599       1.0     0.916200      0.062795      0.777050     Biso  1.000000 H
   H600       1.0     0.873867      0.017864      0.776689     Biso  1.000000 H
   H601       1.0     0.882122      0.056927      0.725155     Biso  1.000000 H
   H602       1.0     0.990919      0.806872      0.792311     Biso  1.000000 H
   H603       1.0     0.249784      0.307805      0.313223     Biso  1.000000 H
   H604       1.0     0.224559      0.252345      0.296674     Biso  1.000000 H
   H605       1.0     0.197686      0.304345      0.294584     Biso  1.000000 H
   H606       1.0     0.342144      0.189329      0.637681     Biso  1.000000 H
   H607       1.0     0.320195      0.243844      0.633813     Biso  1.000000 H
   H608       1.0     0.344293      0.230371      0.692069     Biso  1.000000 H
   H609       1.0     0.401803      0.310874      0.489664     Biso  1.000000 H
   H610       1.0     0.397163      0.275392      0.437057     Biso  1.000000 H
   H611       1.0     0.437419      0.317320      0.437769     Biso  1.000000 H
   H612       1.0     0.485294      0.002031      0.557207     Biso  1.000000 H
   H613       1.0     0.576271      0.427184      0.685956     Biso  1.000000 H
   H614       1.0     0.503226      0.000148      0.492680     Biso  1.000000 H
   H615       1.0     0.526396      0.086831      0.297310     Biso  1.000000 H
   H616       1.0     0.541301      0.044291      0.336325     Biso  1.000000 H
   H617       1.0     0.581060      0.069964      0.299062     Biso  1.000000 H
   H618       1.0     0.668092      0.016207      0.297593     Biso  1.000000 H
   H619       1.0     0.685701      0.000627      0.355849     Biso  1.000000 H
   H620       1.0     0.720859      0.024566      0.309257     Biso  1.000000 H
   H621       1.0     0.792595      0.255435      0.216359     Biso  1.000000 H
   H622       1.0     0.449642      0.028285      0.509094     Biso  1.000000 H
   H623       1.0     0.556303      0.433515      0.746988     Biso  1.000000 H
   H624       1.0     0.573231      0.380838      0.729313     Biso  1.000000 H
   H625       1.0     0.415758      0.496538      0.781336     Biso  1.000000 H
   H626       1.0     0.440886      0.299926      0.234294     Biso  1.000000 H
   H627       1.0     0.410187      0.254656      0.255336     Biso  1.000000 H
   H628       1.0     0.392271      0.308099      0.265248     Biso  1.000000 H
   H629       1.0     0.508299      0.303213      0.966413     Biso  1.000000 H
   H630       1.0     0.532406      0.302584      0.028382     Biso  1.000000 H
   H631       1.0     0.536810      0.351507      0.987327     Biso  1.000000 H
   H632       1.0     0.444711      0.488836      0.921813     Biso  1.000000 H
   H633       1.0     0.423005      0.461416      0.870265     Biso  1.000000 H
   H634       1.0     0.473594      0.446120      0.891631     Biso  1.000000 H
   H635       1.0     0.279671      0.205345      0.952885     Biso  1.000000 H
   H636       1.0     0.278211      0.236938      0.008059     Biso  1.000000 H
   H637       1.0     0.316880      0.190294      0.000297     Biso  1.000000 H
   H638       1.0     0.285917      0.473118      0.826132     Biso  1.000000 H
   H639       1.0     0.316825      0.480657      0.773446     Biso  1.000000 H
   H640       1.0     0.339207      0.490854      0.831774     Biso  1.000000 H
   H641       1.0     0.449054      0.493127      0.727976     Biso  1.000000 H
   H642       1.0     0.474586      0.477512      0.786424     Biso  1.000000 H
   H643       1.0     0.739140      0.270628      0.206103     Biso  1.000000 H
   H644       1.0     0.297972      0.777134      0.100588     Biso  1.000000 H
   H645       1.0     0.697198      0.277049      0.800774     Biso  1.000000 H
   H646       1.0     0.354448      0.726822      0.108418     Biso  1.000000 H
   H647       1.0     0.077102      0.988772      0.409085     Biso  1.000000 H
   H648       1.0     0.967762      0.014792      0.475408     Biso  1.000000 H
   H649       1.0     0.994560      0.963290      0.482206     Biso  1.000000 H
   H650       1.0     0.023747      0.013560      0.481984     Biso  1.000000 H
   H651       1.0     0.973545      0.934413      0.369430     Biso  1.000000 H
   H652       1.0     0.969258      0.979887      0.336076     Biso  1.000000 H
   H653       1.0     0.905693      0.909705      0.432134     Biso  1.000000 H
   H654       1.0     0.049663      0.960238      0.362602     Biso  1.000000 H
   H655       1.0     0.926426      0.955373      0.471183     Biso  1.000000 H
   H656       1.0     0.904940      0.930870      0.335926     Biso  1.000000 H
   H657       1.0     0.893311      0.988523      0.319761     Biso  1.000000 H
   H658       1.0     0.831533      0.914127      0.282727     Biso  1.000000 H
   H659       1.0     0.787823      0.948896      0.293909     Biso  1.000000 H
   H660       1.0     0.837798      0.972763      0.269154     Biso  1.000000 H
   H661       1.0     0.822938      0.999599      0.408776     Biso  1.000000 H
   H662       1.0     0.780579      0.994201      0.372458     Biso  1.000000 H
   H663       1.0     0.873689      0.953965      0.457586     Biso  1.000000 H
   H664       1.0     0.750307      0.242713      0.838892     Biso  1.000000 H
   H665       1.0     0.010684      0.875493      0.379268     Biso  1.000000 H
   H666       1.0     0.027860      0.845907      0.427479     Biso  1.000000 H
   H667       1.0     0.012826      0.742067      0.263972     Biso  1.000000 H
   H668       1.0     0.032464      0.773944      0.127408     Biso  1.000000 H
   H669       1.0     0.032290      0.832202      0.134997     Biso  1.000000 H
   H670       1.0     0.076423      0.798288      0.161078     Biso  1.000000 H
   H671       1.0     0.011485      0.818570      0.282528     Biso  1.000000 H
   H672       1.0     0.017601      0.863639      0.239853     Biso  1.000000 H
   H673       1.0     0.103997      0.774539      0.232591     Biso  1.000000 H
   H674       1.0     0.992486      0.892516      0.436616     Biso  1.000000 H
   H675       1.0     0.137045      0.794593      0.271979     Biso  1.000000 H
   H676       1.0     0.069354      0.836690      0.337466     Biso  1.000000 H
   H677       1.0     0.049641      0.885887      0.312424     Biso  1.000000 H
   H678       1.0     0.174748      0.862255      0.304542     Biso  1.000000 H
   H679       1.0     0.183540      0.882295      0.366413     Biso  1.000000 H
   H680       1.0     0.162147      0.826739      0.354972     Biso  1.000000 H
   H681       1.0     0.129158      0.920781      0.409925     Biso  1.000000 H
   H682       1.0     0.108789      0.864968      0.423061     Biso  1.000000 H
   H683       1.0     0.091503      0.770352      0.296463     Biso  1.000000 H
   H684       1.0     0.053328      0.736019      0.224916     Biso  1.000000 H
   H685       1.0     0.954498      0.499161      0.954207     Biso  1.000000 H
   H686       1.0     0.694765      0.217794      0.911675     Biso  1.000000 H
   H687       1.0     0.091987      0.270410      0.014699     Biso  1.000000 H
   H688       1.0     0.031511      0.354999      0.077464     Biso  1.000000 H
   H689       1.0     0.030212      0.385782      0.024781     Biso  1.000000 H
   H690       1.0     0.104553      0.308697      0.095496     Biso  1.000000 H
   H691       1.0     0.142880      0.354549      0.112260     Biso  1.000000 H
   H692       1.0     0.087370      0.358413      0.127765     Biso  1.000000 H
   H693       1.0     0.059680      0.429689      0.088340     Biso  1.000000 H
   H694       1.0     0.045560      0.238405      0.011871     Biso  1.000000 H
   H695       1.0     0.080785      0.442172      0.029339     Biso  1.000000 H
   H696       1.0     0.078410      0.475657      0.158005     Biso  1.000000 H
   H697       1.0     0.104140      0.425378      0.164675     Biso  1.000000 H
   H698       1.0     0.080876      0.514094      0.064014     Biso  1.000000 H
   H699       1.0     0.127410      0.512406      0.027599     Biso  1.000000 H
   H700       1.0     0.110805      0.600970      0.158381     Biso  1.000000 H
   H701       1.0     0.062410      0.579373      0.126929     Biso  1.000000 H
   H702       1.0     0.094178      0.540473      0.161421     Biso  1.000000 H
   H703       1.0     0.132777      0.473322      0.176139     Biso  1.000000 H
   H704       1.0     0.716057      0.163791      0.909961     Biso  1.000000 H
   H705       1.0     0.053725      0.266631      0.068304     Biso  1.000000 H
   H706       1.0     0.981546      0.291892      0.054629     Biso  1.000000 H
   H707       1.0     0.686632      0.185623      0.855467     Biso  1.000000 H
   H708       1.0     0.819038      0.210328      0.880411     Biso  1.000000 H
   H709       1.0     0.788676      0.200186      0.930080     Biso  1.000000 H
   H710       1.0     0.806725      0.342518      0.888094     Biso  1.000000 H
   H711       1.0     0.825546      0.298705      0.851983     Biso  1.000000 H
   H712       1.0     0.769228      0.307621      0.856593     Biso  1.000000 H
   H713       1.0     0.841533      0.313863      0.960591     Biso  1.000000 H
   H714       1.0     0.968634      0.342058      0.024612     Biso  1.000000 H
   H715       1.0     0.863391      0.274063      0.915644     Biso  1.000000 H
   H716       1.0     0.802721      0.227472      0.020925     Biso  1.000000 H
   H717       1.0     0.848784      0.232689      0.063785     Biso  1.000000 H
   H718       1.0     0.913541      0.256224      0.046976     Biso  1.000000 H
   H719       1.0     0.895153      0.306666      0.024190     Biso  1.000000 H
   H720       1.0     0.952950      0.218593      0.930133     Biso  1.000000 H
   H721       1.0     0.003749      0.238699      0.946810     Biso  1.000000 H
   H722       1.0     0.978376      0.209687      0.990125     Biso  1.000000 H
   H723       1.0     0.814667      0.282945      0.041044     Biso  1.000000 H
   H724       1.0     0.978531      0.665038      0.137622     Biso  1.000000 H
   H725       1.0     0.022797      0.701257      0.139610     Biso  1.000000 H
   H726       1.0     0.969390      0.725702      0.128172     Biso  1.000000 H
   H727       1.0     0.969981      0.242844      0.256966     Biso  1.000000 H
   H728       1.0     0.954411      0.258805      0.197023     Biso  1.000000 H
   H729       1.0     0.058513      0.239789      0.163308     Biso  1.000000 H
   H730       1.0     0.031611      0.291398      0.143388     Biso  1.000000 H
   H731       1.0     0.078417      0.299037      0.180248     Biso  1.000000 H
   H732       1.0     0.067150      0.240758      0.258356     Biso  1.000000 H
   H733       1.0     0.026972      0.250200      0.295785     Biso  1.000000 H
   H734       1.0     0.010920      0.169576      0.263158     Biso  1.000000 H
   H735       1.0     0.093351      0.352334      0.238256     Biso  1.000000 H
   H736       1.0     0.123006      0.301131      0.247057     Biso  1.000000 H
   H737       1.0     0.122204      0.308812      0.364319     Biso  1.000000 H
   H738       1.0     0.123319      0.260646      0.335402     Biso  1.000000 H
   H739       1.0     0.057324      0.290678      0.472478     Biso  1.000000 H
   H740       1.0     0.073913      0.335474      0.429355     Biso  1.000000 H
   H741       1.0     0.025346      0.303335      0.418930     Biso  1.000000 H
   H742       1.0     0.132554      0.278672      0.448868     Biso  1.000000 H
   H743       1.0     0.130176      0.346563      0.287767     Biso  1.000000 H
   H744       1.0     0.149329      0.236606      0.404452     Biso  1.000000 H
   H745       1.0     0.048626      0.185001      0.214558     Biso  1.000000 H
   H746       1.0     0.946133      0.149249      0.245732     Biso  1.000000 H
   H747       1.0     0.833988      0.041340      0.066485     Biso  1.000000 H
   H748       1.0     0.816434      0.015252      0.121423     Biso  1.000000 H
   H749       1.0     0.797545      0.108640      0.032009     Biso  1.000000 H
   H750       1.0     0.744475      0.092309      0.041519     Biso  1.000000 H
   H751       1.0     0.766343      0.145927      0.070609     Biso  1.000000 H
   H752       1.0     0.805875      0.143049      0.148540     Biso  1.000000 H
   H753       1.0     0.838774      0.124669      0.112994     Biso  1.000000 H
   H754       1.0     0.023867      0.132306      0.210171     Biso  1.000000 H
   H755       1.0     0.806476      0.027746      0.198891     Biso  1.000000 H
   H756       1.0     0.792101      0.080102      0.239265     Biso  1.000000 H
   H757       1.0     0.869837      0.121268      0.254371     Biso  1.000000 H
   H758       1.0     0.827097      0.149692      0.236331     Biso  1.000000 H
   H759       1.0     0.891150      0.183880      0.121634     Biso  1.000000 H
   H760       1.0     0.845113      0.210639      0.154532     Biso  1.000000 H
   H761       1.0     0.894432      0.237979      0.151982     Biso  1.000000 H
   H762       1.0     0.941732      0.131299      0.183137     Biso  1.000000 H
   H763       1.0     0.834929      0.042720      0.254145     Biso  1.000000 H
   H764       1.0     0.086924      0.248633      0.517782     Biso  1.000000 H
   H765       1.0     0.060242      0.200653      0.494722     Biso  1.000000 H
   H766       1.0     0.097034      0.198301      0.538139     Biso  1.000000 H
   H767       1.0     0.194564      0.543711      0.356768     Biso  1.000000 H
   H768       1.0     0.145769      0.429481      0.316552     Biso  1.000000 H
   H769       1.0     0.101070      0.449410      0.298308     Biso  1.000000 H
   H770       1.0     0.140496      0.462672      0.258725     Biso  1.000000 H
   H771       1.0     0.122822      0.537445      0.262439     Biso  1.000000 H
   H772       1.0     0.137794      0.575789      0.308684     Biso  1.000000 H
   H773       1.0     0.039799      0.486902      0.318413     Biso  1.000000 H
   H774       1.0     0.194684      0.522280      0.297751     Biso  1.000000 H
   H775       1.0     0.002189      0.529010      0.296501     Biso  1.000000 H
   H776       1.0     0.060119      0.579864      0.233186     Biso  1.000000 H
   H777       1.0     0.088973      0.613789      0.270992     Biso  1.000000 H
   H778       1.0     0.977920      0.587867      0.318100     Biso  1.000000 H
   H779       1.0     0.950172      0.630864      0.293137     Biso  1.000000 H
   H780       1.0     0.967296      0.589902      0.249641     Biso  1.000000 H
   H781       1.0     0.010797      0.628238      0.196522     Biso  1.000000 H
   H782       1.0     0.055719      0.659865      0.212491     Biso  1.000000 H
   H783       1.0     0.039715      0.505136      0.253810     Biso  1.000000 H
   H784       1.0     0.242414      0.528270      0.415920     Biso  1.000000 H
   H785       1.0     0.261535      0.539878      0.352478     Biso  1.000000 H
   H786       1.0     0.290107      0.499583      0.390178     Biso  1.000000 H
   H787       1.0     0.178286      0.186329      0.524467     Biso  1.000000 H
   H788       1.0     0.168396      0.241996      0.529586     Biso  1.000000 H
   H789       1.0     0.240795      0.241858      0.553739     Biso  1.000000 H
   H790       1.0     0.248530      0.186160      0.543927     Biso  1.000000 H
   H791       1.0     0.281978      0.226565      0.514389     Biso  1.000000 H
   H792       1.0     0.203670      0.273593      0.421600     Biso  1.000000 H
   H793       1.0     0.255958      0.265074      0.427246     Biso  1.000000 H
   H794       1.0     0.196674      0.357424      0.529461     Biso  1.000000 H
   H795       1.0     0.164729      0.317794      0.500563     Biso  1.000000 H
   H796       1.0     0.203841      0.302386      0.553520     Biso  1.000000 H
   H797       1.0     0.188887      0.357448      0.422300     Biso  1.000000 H
   H798       1.0     0.236843      0.337474      0.401191     Biso  1.000000 H
   H799       1.0     0.235722      0.471606      0.471427     Biso  1.000000 H
   H800       1.0     0.203689      0.429204      0.496684     Biso  1.000000 H
   H801       1.0     0.260802      0.429498      0.502160     Biso  1.000000 H
   H802       1.0     0.185734      0.440356      0.408320     Biso  1.000000 H
   H803       1.0     0.205069      0.405147      0.362847     Biso  1.000000 H
   H804       1.0     0.266727      0.754727      0.149011     Biso  1.000000 H
   H805       1.0     0.155430      0.584657      0.023945     Biso  1.000000 H
   H806       1.0     0.058145      0.639438      0.059928     Biso  1.000000 H
   H807       1.0     0.073661      0.649285      0.120813     Biso  1.000000 H
   H808       1.0     0.399699      0.654506      0.794032     Biso  1.000000 H
   H809       1.0     0.381075      0.702534      0.800540     Biso  1.000000 H
   H810       1.0     0.406178      0.602870      0.864977     Biso  1.000000 H
   H811       1.0     0.431461      0.636801      0.914104     Biso  1.000000 H
   H812       1.0     0.379679      0.610468      0.920898     Biso  1.000000 H
   H813       1.0     0.318434      0.650133      0.893985     Biso  1.000000 H
   H814       1.0     0.330444      0.620571      0.844466     Biso  1.000000 H
   H815       1.0     0.485795      0.647202      0.855908     Biso  1.000000 H
   H816       1.0     0.270983      0.753838      0.820362     Biso  1.000000 H
   H817       1.0     0.324422      0.749565      0.821266     Biso  1.000000 H
   H818       1.0     0.227793      0.684902      0.804574     Biso  1.000000 H
   H819       1.0     0.240672      0.678086      0.871971     Biso  1.000000 H
   H820       1.0     0.232048      0.554493      0.791852     Biso  1.000000 H
   H821       1.0     0.232081      0.604160      0.753564     Biso  1.000000 H
   H822       1.0     0.280951      0.578865      0.786417     Biso  1.000000 H
   H823       1.0     0.171226      0.635231      0.800668     Biso  1.000000 H
   H824       1.0     0.294289      0.742963      0.876242     Biso  1.000000 H
   H825       1.0     0.169359      0.638393      0.867749     Biso  1.000000 H
   H826       1.0     0.476243      0.699786      0.893100     Biso  1.000000 H
   H827       1.0     0.486166      0.727847      0.753406     Biso  1.000000 H
   H828       1.0     0.626776      0.739147      0.639394     Biso  1.000000 H
   H829       1.0     0.646098      0.687684      0.662229     Biso  1.000000 H
   H830       1.0     0.563961      0.688666      0.529838     Biso  1.000000 H
   H831       1.0     0.575079      0.738777      0.571063     Biso  1.000000 H
   H832       1.0     0.616033      0.714131      0.531394     Biso  1.000000 H
   H833       1.0     0.555172      0.710142      0.650896     Biso  1.000000 H
   H834       1.0     0.582520      0.666073      0.676654     Biso  1.000000 H
   H835       1.0     0.514105      0.694749      0.843600     Biso  1.000000 H
   H836       1.0     0.521407      0.634494      0.557445     Biso  1.000000 H
   H837       1.0     0.491178      0.684006      0.580509     Biso  1.000000 H
   H838       1.0     0.455607      0.656748      0.669159     Biso  1.000000 H
   H839       1.0     0.488383      0.699472      0.675976     Biso  1.000000 H
   H840       1.0     0.464621      0.602558      0.792364     Biso  1.000000 H
   H841       1.0     0.437658      0.604056      0.734737     Biso  1.000000 H
   H842       1.0     0.486825      0.581840      0.733159     Biso  1.000000 H
   H843       1.0     0.436979      0.705720      0.736601     Biso  1.000000 H
   H844       1.0     0.470492      0.630843      0.590275     Biso  1.000000 H
   H845       1.0     0.155061      0.568343      0.756084     Biso  1.000000 H
   H846       1.0     0.175120      0.520720      0.787456     Biso  1.000000 H
   H847       1.0     0.126133      0.522481      0.777984     Biso  1.000000 H
   H848       1.0     0.845210      0.742652      0.031802     Biso  1.000000 H
   H849       1.0     0.932259      0.665464      0.057860     Biso  1.000000 H
   H850       1.0     0.902064      0.698368      0.102856     Biso  1.000000 H
   H851       1.0     0.901602      0.638753      0.100524     Biso  1.000000 H
   H852       1.0     0.885802      0.635957      0.972006     Biso  1.000000 H
   H853       1.0     0.835675      0.632217      0.978732     Biso  1.000000 H
   H854       1.0     0.853676      0.524983      0.071001     Biso  1.000000 H
   H855       1.0     0.841207      0.704585      0.978819     Biso  1.000000 H
   H856       1.0     0.866170      0.575792      0.098460     Biso  1.000000 H
   H857       1.0     0.943861      0.598860      0.040528     Biso  1.000000 H
   H858       1.0     0.941655      0.580823      0.980857     Biso  1.000000 H
   H859       1.0     0.019194      0.505873      0.041903     Biso  1.000000 H
   H860       1.0     0.017753      0.535843      0.988359     Biso  1.000000 H
   H861       1.0     0.012432      0.567616      0.042219     Biso  1.000000 H
   H862       1.0     0.913961      0.472173      0.988449     Biso  1.000000 H
   H863       1.0     0.965787      0.456313      0.000143     Biso  1.000000 H
   H864       1.0     0.821045      0.574363      0.064824     Biso  1.000000 H
   H865       1.0     0.902151      0.776113      0.064745     Biso  1.000000 H
   H866       1.0     0.942792      0.794025      0.025463     Biso  1.000000 H
   H867       1.0     0.948091      0.742448      0.057397     Biso  1.000000 H
   H868       1.0     0.099429      0.622488      0.808416     Biso  1.000000 H
   H869       1.0     0.098501      0.614606      0.874182     Biso  1.000000 H
   H870       1.0     0.043890      0.607046      0.754408     Biso  1.000000 H
   H871       1.0     0.063968      0.551358      0.753590     Biso  1.000000 H
   H872       1.0     0.008374      0.557001      0.765559     Biso  1.000000 H
   H873       1.0     0.036122      0.607727      0.894930     Biso  1.000000 H
   H874       1.0     0.993090      0.576335      0.871432     Biso  1.000000 H
   H875       1.0     0.025321      0.715367      0.823507     Biso  1.000000 H
   H876       1.0     0.061318      0.677439      0.855384     Biso  1.000000 H
   H877       1.0     0.051376      0.668176      0.790680     Biso  1.000000 H
   H878       1.0     0.996218      0.660170      0.920224     Biso  1.000000 H
   H879       1.0     0.953083      0.629764      0.901122     Biso  1.000000 H
   H880       1.0     0.951399      0.779701      0.881597     Biso  1.000000 H
   H881       1.0     0.997194      0.748966      0.895077     Biso  1.000000 H
   H882       1.0     0.967193      0.743437      0.836809     Biso  1.000000 H
   H883       1.0     0.969167      0.731127      0.970594     Biso  1.000000 H
   H884       1.0     0.946046      0.678985      0.981478     Biso  1.000000 H
   H885       1.0     0.732992      0.683103      0.545611     Biso  1.000000 H
   H886       1.0     0.836884      0.997505      0.005122     Biso  1.000000 H
   H887       1.0     0.678228      0.681148      0.527793     Biso  1.000000 H
   H888       1.0     0.680577      0.787379      0.617667     Biso  1.000000 H
   H889       1.0     0.342360      0.904322      0.865421     Biso  1.000000 H
   H890       1.0     0.262663      0.942201      0.938091     Biso  1.000000 H
   H891       1.0     0.226119      0.951363      0.890222     Biso  1.000000 H
   H892       1.0     0.315856      0.965753      0.814581     Biso  1.000000 H
   H893       1.0     0.267422      0.992893      0.809293     Biso  1.000000 H
   H894       1.0     0.316602      0.022431      0.819888     Biso  1.000000 H
   H895       1.0     0.354164      0.969248      0.898579     Biso  1.000000 H
   H896       1.0     0.327297      0.846447      0.872163     Biso  1.000000 H
   H897       1.0     0.323081      0.974687      0.950471     Biso  1.000000 H
   H898       1.0     0.323688      0.088049      0.876946     Biso  1.000000 H
   H899       1.0     0.375896      0.104093      0.895325     Biso  1.000000 H
   H900       1.0     0.424524      0.064342      0.934148     Biso  1.000000 H
   H901       1.0     0.413405      0.011785      0.902474     Biso  1.000000 H
   H902       1.0     0.450408      0.026891      0.056297     Biso  1.000000 H
   H903       1.0     0.454540      0.069282      0.005830     Biso  1.000000 H
   H904       1.0     0.406271      0.056494      0.039485     Biso  1.000000 H
   H905       1.0     0.368261      0.057180      0.854251     Biso  1.000000 H
   H906       1.0     0.480286      0.004917      0.936099     Biso  1.000000 H
   H907       1.0     0.330270      0.884562      0.925418     Biso  1.000000 H
   H908       1.0     0.251725      0.824442      0.885970     Biso  1.000000 H
   H909       1.0     0.072540      0.695074      0.078661     Biso  1.000000 H
   H910       1.0     0.109603      0.650188      0.978386     Biso  1.000000 H
   H911       1.0     0.161465      0.664208      0.994076     Biso  1.000000 H
   H912       1.0     0.053596      0.708384      0.003235     Biso  1.000000 H
   H913       1.0     0.061887      0.758568      0.966202     Biso  1.000000 H
   H914       1.0     0.069386      0.701959      0.940562     Biso  1.000000 H
   H915       1.0     0.144648      0.697665      0.922209     Biso  1.000000 H
   H916       1.0     0.261341      0.852436      0.944607     Biso  1.000000 H
   H917       1.0     0.182545      0.722781      0.950301     Biso  1.000000 H
   H918       1.0     0.195586      0.790164      0.842685     Biso  1.000000 H
   H919       1.0     0.222995      0.757152      0.887036     Biso  1.000000 H
   H920       1.0     0.204603      0.802723      0.964217     Biso  1.000000 H
   H921       1.0     0.152228      0.823033      0.971991     Biso  1.000000 H
   H922       1.0     0.177999      0.858830      0.837273     Biso  1.000000 H
   H923       1.0     0.136828      0.883181      0.873259     Biso  1.000000 H
   H924       1.0     0.176832      0.915601      0.857313     Biso  1.000000 H
   H925       1.0     0.179731      0.734341      0.849754     Biso  1.000000 H
   H926       1.0     0.458686      0.951796      0.941503     Biso  1.000000 H
   H927       1.0     0.564342      0.013999      0.016955     Biso  1.000000 H
   H928       1.0     0.525879      0.045506      0.989756     Biso  1.000000 H
   H929       1.0     0.741874      0.875531      0.699519     Biso  1.000000 H
   H930       1.0     0.781122      0.910629      0.669633     Biso  1.000000 H
   H931       1.0     0.676952      0.956927      0.703759     Biso  1.000000 H
   H932       1.0     0.650153      0.951079      0.651412     Biso  1.000000 H
   H933       1.0     0.657219      0.903266      0.694773     Biso  1.000000 H
   H934       1.0     0.720222      0.853644      0.628126     Biso  1.000000 H
   H935       1.0     0.749147      0.886593      0.587303     Biso  1.000000 H
   H936       1.0     0.722429      0.004875      0.744182     Biso  1.000000 H
   H937       1.0     0.614311      0.852540      0.561531     Biso  1.000000 H
   H938       1.0     0.619871      0.894225      0.611467     Biso  1.000000 H
   H939       1.0     0.714600      0.856457      0.496571     Biso  1.000000 H
   H940       1.0     0.662066      0.836226      0.504491     Biso  1.000000 H
   H941       1.0     0.674871      0.751523      0.490793     Biso  1.000000 H
   H942       1.0     0.710371      0.789531      0.458867     Biso  1.000000 H
   H943       1.0     0.731515      0.742821      0.485709     Biso  1.000000 H
   H944       1.0     0.647846      0.771805      0.573075     Biso  1.000000 H
   H945       1.0     0.635749      0.839707      0.618669     Biso  1.000000 H
   H946       1.0     0.772763      0.999893      0.710478     Biso  1.000000 H
   H947       1.0     0.771522      0.005585      0.775540     Biso  1.000000 H
   H948       1.0     0.708212      0.885122      0.768215     Biso  1.000000 H
   H949       1.0     0.515084      0.028891      0.046038     Biso  1.000000 H
   H950       1.0     0.551301      0.975434      0.935037     Biso  1.000000 H
   H951       1.0     0.528665      0.922545      0.931560     Biso  1.000000 H
   H952       1.0     0.632851      0.917321      0.035572     Biso  1.000000 H
   H953       1.0     0.619400      0.973656      0.021332     Biso  1.000000 H
   H954       1.0     0.581509      0.935032      0.048452     Biso  1.000000 H
   H955       1.0     0.619781      0.952771      0.916104     Biso  1.000000 H
   H956       1.0     0.596462      0.901592      0.897197     Biso  1.000000 H
   H957       1.0     0.687650      0.910210      0.000272     Biso  1.000000 H
   H958       1.0     0.728445      0.907795      0.952309     Biso  1.000000 H
   H959       1.0     0.691588      0.953837      0.960372     Biso  1.000000 H
   H960       1.0     0.661468      0.939956      0.852620     Biso  1.000000 H
   H961       1.0     0.659303      0.882981      0.841920     Biso  1.000000 H
   H962       1.0     0.742197      0.967653      0.899841     Biso  1.000000 H
   H963       1.0     0.780802      0.962605      0.852465     Biso  1.000000 H
   H964       1.0     0.733815      0.995910      0.842353     Biso  1.000000 H
   H965       1.0     0.692367      0.941087      0.774813     Biso  1.000000 H
   H966       1.0     0.699236      0.645147      0.575477     Biso  1.000000 H
   H967       1.0     0.805342      0.942163      0.004579     Biso  1.000000 H
   H968       1.0     0.099409      0.586258      0.024883     Biso  1.000000 H
   H969       1.0     0.731838      0.943076      0.070831     Biso  1.000000 H
   H970       1.0     0.184771      0.790548      0.563693     Biso  1.000000 H
   H971       1.0     0.222168      0.749738      0.558477     Biso  1.000000 H
   H972       1.0     0.147417      0.795997      0.446258     Biso  1.000000 H
   H973       1.0     0.105099      0.756979      0.461149     Biso  1.000000 H
   H974       1.0     0.121271      0.803640      0.501026     Biso  1.000000 H
   H975       1.0     0.180474      0.679982      0.540576     Biso  1.000000 H
   H976       1.0     0.134941      0.684452      0.499659     Biso  1.000000 H
   H977       1.0     0.238278      0.865608      0.454186     Biso  1.000000 H
   H978       1.0     0.119141      0.630477      0.581503     Biso  1.000000 H
   H979       1.0     0.083987      0.648105      0.538267     Biso  1.000000 H
   H980       1.0     0.078902      0.746385      0.531612     Biso  1.000000 H
   H981       1.0     0.103936      0.776694      0.581718     Biso  1.000000 H
   H982       1.0     0.011653      0.693413      0.577161     Biso  1.000000 H
   H983       1.0     0.976990      0.732327      0.602395     Biso  1.000000 H
   H984       1.0     0.004894      0.739856      0.541536     Biso  1.000000 H
   H985       1.0     0.039127      0.817068      0.567248     Biso  1.000000 H
   H986       1.0     0.069218      0.656395      0.597924     Biso  1.000000 H
   H987       1.0     0.063728      0.821687      0.624499     Biso  1.000000 H
   H988       1.0     0.186952      0.852488      0.468712     Biso  1.000000 H
   H989       1.0     0.275245      0.860823      0.541073     Biso  1.000000 H
   H990       1.0     0.147249      0.052920      0.658790     Biso  1.000000 H
   H991       1.0     0.181475      0.049440      0.700234     Biso  1.000000 H
   H992       1.0     0.229215      0.068355      0.550677     Biso  1.000000 H
   H993       1.0     0.174251      0.072646      0.566013     Biso  1.000000 H
   H994       1.0     0.215541      0.117480      0.580645     Biso  1.000000 H
   H995       1.0     0.234736      0.998861      0.580931     Biso  1.000000 H
   H996       1.0     0.180293      0.995904      0.590701     Biso  1.000000 H
   H997       1.0     0.214946      0.811934      0.430778     Biso  1.000000 H
   H998       1.0     0.277994      0.970376      0.679572     Biso  1.000000 H
   H999       1.0     0.253089      0.929929      0.709921     Biso  1.000000 H
   H1000      1.0     0.229257      0.883545      0.638697     Biso  1.000000 H
   H1001      1.0     0.267503      0.917466      0.608029     Biso  1.000000 H
   H1002      1.0     0.148373      0.912747      0.579488     Biso  1.000000 H
   H1003      1.0     0.150421      0.869172      0.534892     Biso  1.000000 H
   H1004      1.0     0.160399      0.853751      0.597604     Biso  1.000000 H
   H1005      1.0     0.249641      0.829798      0.590855     Biso  1.000000 H
   H1006      1.0     0.234207      0.990333      0.716659     Biso  1.000000 H
   H1007      1.0     0.156073      0.103854      0.764622     Biso  1.000000 H
   H1008      1.0     0.933011      0.852104      0.586569     Biso  1.000000 H
   H1009      1.0     0.953047      0.800665      0.567154     Biso  1.000000 H
   H1010      1.0     0.016981      0.971386      0.923858     Biso  1.000000 H
   H1011      1.0     0.967190      0.950211      0.924009     Biso  1.000000 H
   H1012      1.0     0.913854      0.010622      0.988084     Biso  1.000000 H
   H1013      1.0     0.944036      0.030033      0.041763     Biso  1.000000 H
   H1014      1.0     0.947697      0.056768      0.981870     Biso  1.000000 H
   H1015      1.0     0.015013      0.047990      0.998230     Biso  1.000000 H
   H1016      1.0     0.051395      0.006342      0.974013     Biso  1.000000 H
   H1017      1.0     0.004312      0.084181      0.855151     Biso  1.000000 H
   H1018      1.0     0.014118      0.967265      0.109559     Biso  1.000000 H
   H1019      1.0     0.988857      0.019335      0.097410     Biso  1.000000 H
   H1020      1.0     0.094472      0.050979      0.098931     Biso  1.000000 H
   H1021      1.0     0.055644      0.084624      0.073174     Biso  1.000000 H
   H1022      1.0     0.114314      0.025258      0.968914     Biso  1.000000 H
   H1023      1.0     0.165352      0.051834      0.976928     Biso  1.000000 H
   H1024      1.0     0.149446      0.012726      0.020785     Biso  1.000000 H
   H1025      1.0     0.174354      0.114265      0.025083     Biso  1.000000 H
   H1026      1.0     0.031204      0.022365      0.130006     Biso  1.000000 H
   H1027      1.0     0.978350      0.852197      0.546903     Biso  1.000000 H
   H1028      1.0     0.034904      0.057515      0.905811     Biso  1.000000 H
   H1029      1.0     0.995274      0.028528      0.810382     Biso  1.000000 H
   H1030      1.0     0.037547      0.889119      0.619618     Biso  1.000000 H
   H1031      1.0     0.013744      0.880659      0.680443     Biso  1.000000 H
   H1032      1.0     0.004619      0.934226      0.558827     Biso  1.000000 H
   H1033      1.0     0.948078      0.927770      0.558002     Biso  1.000000 H
   H1034      1.0     0.969872      0.981323      0.572464     Biso  1.000000 H
   H1035      1.0     0.003537      0.000831      0.633074     Biso  1.000000 H
   H1036      1.0     0.041935      0.964642      0.649024     Biso  1.000000 H
   H1037      1.0     0.985639      0.081967      0.919399     Biso  1.000000 H
   H1038      1.0     0.073199      0.999582      0.736085     Biso  1.000000 H
   H1039      1.0     0.040549      0.041146      0.751971     Biso  1.000000 H
   H1040      1.0     0.037637      0.930503      0.741256     Biso  1.000000 H
   H1041      1.0     0.984079      0.923009      0.741761     Biso  1.000000 H
   H1042      1.0     0.991836      0.906138      0.870875     Biso  1.000000 H
   H1043      1.0     0.951652      0.907695      0.821496     Biso  1.000000 H
   H1044      1.0     0.002454      0.880964      0.813824     Biso  1.000000 H
   H1045      1.0     0.952330      0.990903      0.814197     Biso  1.000000 H
   H1046      1.0     0.054310      0.041018      0.689436     Biso  1.000000 H
   H1047      1.0     0.112941      0.083320      0.730157     Biso  1.000000 H
   H1048      1.0     0.112679      0.140949      0.738740     Biso  1.000000 H
   H1049      1.0     0.219376      0.162608      0.660109     Biso  1.000000 H
   H1050      1.0     0.594453      0.607236      0.035651     Biso  1.000000 H
   H1051      1.0     0.594530      0.692545      0.912108     Biso  1.000000 H
   H1052      1.0     0.549566      0.671103      0.928144     Biso  1.000000 H
   H1053      1.0     0.584656      0.705831      0.974691     Biso  1.000000 H
   H1054      1.0     0.619468      0.623692      0.878490     Biso  1.000000 H
   H1055      1.0     0.570769      0.603825      0.889473     Biso  1.000000 H
   H1056      1.0     0.688923      0.558060      0.942079     Biso  1.000000 H
   H1057      1.0     0.584397      0.564969      0.992525     Biso  1.000000 H
   H1058      1.0     0.644573      0.530013      0.972835     Biso  1.000000 H
   H1059      1.0     0.668509      0.575799      0.837555     Biso  1.000000 H
   H1060      1.0     0.619403      0.547874      0.816457     Biso  1.000000 H
   H1061      1.0     0.704820      0.489615      0.754445     Biso  1.000000 H
   H1062      1.0     0.651652      0.507960      0.742454     Biso  1.000000 H
   H1063      1.0     0.688186      0.550918      0.759123     Biso  1.000000 H
   H1064      1.0     0.658667      0.433342      0.797467     Biso  1.000000 H
   H1065      1.0     0.612782      0.457614      0.811843     Biso  1.000000 H
   H1066      1.0     0.671769      0.504046      0.928988     Biso  1.000000 H
   H1067      1.0     0.466566      0.587812      0.438654     Biso  1.000000 H
   H1068      1.0     0.511469      0.607368      0.928186     Biso  1.000000 H
   H1069      1.0     0.510919      0.551607      0.956696     Biso  1.000000 H
   H1070      1.0     0.839769      0.948685      0.053205     Biso  1.000000 H
   H1071      1.0     0.464767      0.702032      0.146454     Biso  1.000000 H
   H1072      1.0     0.430905      0.702125      0.093655     Biso  1.000000 H
   H1073      1.0     0.438346      0.751634      0.130522     Biso  1.000000 H
   H1074      1.0     0.375566      0.651112      0.105737     Biso  1.000000 H
   H1075      1.0     0.352765      0.635141      0.162946     Biso  1.000000 H
   H1076      1.0     0.462311      0.624916      0.202345     Biso  1.000000 H
   H1077      1.0     0.470224      0.596372      0.969403     Biso  1.000000 H
   H1078      1.0     0.415528      0.597323      0.231548     Biso  1.000000 H
   H1079      1.0     0.477096      0.619996      0.120082     Biso  1.000000 H
   H1080      1.0     0.438097      0.623577      0.074236     Biso  1.000000 H
   H1081      1.0     0.456883      0.516447      0.139983     Biso  1.000000 H
   H1082      1.0     0.494418      0.491777      0.102871     Biso  1.000000 H
   H1083      1.0     0.510441      0.530730      0.149433     Biso  1.000000 H
   H1084      1.0     0.530645      0.539989      0.043782     Biso  1.000000 H
   H1085      1.0     0.537531      0.584106      0.083286     Biso  1.000000 H
   H1086      1.0     0.455355      0.565077      0.203358     Biso  1.000000 H
   H1087      1.0     0.796421      0.227139      0.354640     Biso  1.000000 H
   H1088      1.0     0.479830      0.667841      0.449075     Biso  1.000000 H
   H1089      1.0     0.428533      0.670629      0.479879     Biso  1.000000 H
   H1090      1.0     0.218135      0.388750      0.686058     Biso  1.000000 H
   H1091      1.0     0.209221      0.384965      0.623260     Biso  1.000000 H
   H1092      1.0     0.125649      0.428547      0.724455     Biso  1.000000 H
   H1093      1.0     0.113031      0.372679      0.740401     Biso  1.000000 H
   H1094      1.0     0.163578      0.389778      0.755191     Biso  1.000000 H
   H1095      1.0     0.201909      0.320056      0.702513     Biso  1.000000 H
   H1096      1.0     0.176752      0.308303      0.646456     Biso  1.000000 H
   H1097      1.0     0.194535      0.459064      0.736921     Biso  1.000000 H
   H1098      1.0     0.148124      0.324395      0.793885     Biso  1.000000 H
   H1099      1.0     0.183902      0.279572      0.787615     Biso  1.000000 H
   H1100      1.0     0.162270      0.229208      0.665389     Biso  1.000000 H
   H1101      1.0     0.132360      0.214196      0.718595     Biso  1.000000 H
   H1102      1.0     0.269222      0.215227      0.710934     Biso  1.000000 H
   H1103      1.0     0.238733      0.232956      0.658832     Biso  1.000000 H
   H1104      1.0     0.246123      0.268752      0.710004     Biso  1.000000 H
   H1105      1.0     0.223628      0.132306      0.715894     Biso  1.000000 H
   H1106      1.0     0.130938      0.268313      0.795614     Biso  1.000000 H
   H1107      1.0     0.226449      0.502739      0.712764     Biso  1.000000 H
   H1108      1.0     0.250740      0.449275      0.719061     Biso  1.000000 H
   H1109      1.0     0.234106      0.456607      0.580878     Biso  1.000000 H
   H1110      1.0     0.473756      0.639514      0.504175     Biso  1.000000 H
   H1111      1.0     0.375951      0.600669      0.484293     Biso  1.000000 H
   H1112      1.0     0.423661      0.575287      0.509414     Biso  1.000000 H
   H1113      1.0     0.410145      0.522273      0.379637     Biso  1.000000 H
   H1114      1.0     0.364122      0.487622      0.397756     Biso  1.000000 H
   H1115      1.0     0.363640      0.549808      0.387022     Biso  1.000000 H
   H1116      1.0     0.338981      0.480425      0.490590     Biso  1.000000 H
   H1117      1.0     0.318050      0.533255      0.478327     Biso  1.000000 H
   H1118      1.0     0.383709      0.486017      0.614149     Biso  1.000000 H
   H1119      1.0     0.380335      0.453728      0.558635     Biso  1.000000 H
   H1120      1.0     0.415186      0.503264      0.568483     Biso  1.000000 H
   H1121      1.0     0.305678      0.461243      0.562853     Biso  1.000000 H
   H1122      1.0     0.274795      0.504946      0.541257     Biso  1.000000 H
   H1123      1.0     0.315966      0.470904      0.670063     Biso  1.000000 H
   H1124      1.0     0.333372      0.525671      0.664477     Biso  1.000000 H
   H1125      1.0     0.286692      0.515025      0.698890     Biso  1.000000 H
   H1126      1.0     0.265144      0.435200      0.628935     Biso  1.000000 H
   H1127      1.0     0.170677      0.072819      0.070074     Biso  1.000000 H
   H1128      1.0     0.104815      0.208400      0.101195     Biso  1.000000 H
   H1129      1.0     0.324373      0.698946      0.158871     Biso  1.000000 H
   H1130      1.0     0.083428      0.162334      0.069811     Biso  1.000000 H
   H1131      1.0     0.505078      0.084295      0.809741     Biso  1.000000 H
   H1132      1.0     0.525724      0.014418      0.852168     Biso  1.000000 H
   H1133      1.0     0.579318      0.994038      0.857814     Biso  1.000000 H
   H1134      1.0     0.599467      0.951436      0.732383     Biso  1.000000 H
   H1135      1.0     0.602950      0.010269      0.735712     Biso  1.000000 H
   H1136      1.0     0.618527      0.973884      0.784997     Biso  1.000000 H
   H1137      1.0     0.521588      0.032406      0.737855     Biso  1.000000 H
   H1138      1.0     0.547721      0.099062      0.766249     Biso  1.000000 H
   H1139      1.0     0.482715      0.008917      0.776595     Biso  1.000000 H
   H1140      1.0     0.458172      0.002322      0.638946     Biso  1.000000 H
   H1141      1.0     0.433700      0.019767      0.694980     Biso  1.000000 H
   H1142      1.0     0.441884      0.942962      0.746355     Biso  1.000000 H
   H1143      1.0     0.475420      0.901433      0.734127     Biso  1.000000 H
   H1144      1.0     0.412620      0.835849      0.716802     Biso  1.000000 H
   H1145      1.0     0.390610      0.882507      0.748773     Biso  1.000000 H
   H1146      1.0     0.367292      0.862826      0.694306     Biso  1.000000 H
   H1147      1.0     0.480602      0.045257      0.672786     Biso  1.000000 H
   H1148      1.0     0.473975      0.900270      0.615000     Biso  1.000000 H
   H1149      1.0     0.535165      0.130752      0.814359     Biso  1.000000 H
   H1150      1.0     0.556536      0.056657      0.913260     Biso  1.000000 H
   H1151      1.0     0.745315      0.317257      0.740416     Biso  1.000000 H
   H1152      1.0     0.615635      0.303656      0.757658     Biso  1.000000 H
   H1153      1.0     0.641752      0.350535      0.777845     Biso  1.000000 H
   H1154      1.0     0.687120      0.290415      0.878219     Biso  1.000000 H
   H1155      1.0     0.671191      0.345387      0.882354     Biso  1.000000 H
   H1156      1.0     0.647019      0.298823      0.916661     Biso  1.000000 H
   H1157      1.0     0.641659      0.230544      0.833427     Biso  1.000000 H
   H1158      1.0     0.607261      0.073047      0.906236     Biso  1.000000 H
   H1159      1.0     0.595764      0.244290      0.799682     Biso  1.000000 H
   H1160      1.0     0.564791      0.225430      0.954478     Biso  1.000000 H
   H1161      1.0     0.616989      0.237398      0.937888     Biso  1.000000 H
   H1162      1.0     0.624317      0.170611      0.891213     Biso  1.000000 H
   H1163      1.0     0.593041      0.156864      0.842078     Biso  1.000000 H
   H1164      1.0     0.567308      0.113933      0.993556     Biso  1.000000 H
   H1165      1.0     0.618308      0.118037      0.965069     Biso  1.000000 H
   H1166      1.0     0.598323      0.165954      0.982638     Biso  1.000000 H
   H1167      1.0     0.577260      0.279205      0.935549     Biso  1.000000 H
   H1168      1.0     0.425322      0.879441      0.604391     Biso  1.000000 H
   H1169      1.0     0.479381      0.824518      0.719773     Biso  1.000000 H
   H1170      1.0     0.508470      0.781521      0.685768     Biso  1.000000 H
   H1171      1.0     0.640392      0.842596      0.294700     Biso  1.000000 H
   H1172      1.0     0.638870      0.897627      0.277361     Biso  1.000000 H
   H1173      1.0     0.651675      0.792174      0.167454     Biso  1.000000 H
   H1174      1.0     0.648140      0.779815      0.229160     Biso  1.000000 H
   H1175      1.0     0.602446      0.797326      0.191984     Biso  1.000000 H
   H1176      1.0     0.705346      0.832780      0.261060     Biso  1.000000 H
   H1177      1.0     0.702241      0.888869      0.247027     Biso  1.000000 H
   H1178      1.0     0.512868      0.836932      0.247234     Biso  1.000000 H
   H1179      1.0     0.805940      0.841150      0.202243     Biso  1.000000 H
   H1180      1.0     0.776659      0.822698      0.254104     Biso  1.000000 H
   H1181      1.0     0.729903      0.929368      0.182836     Biso  1.000000 H
   H1182      1.0     0.714306      0.894232      0.132014     Biso  1.000000 H
   H1183      1.0     0.843549      0.946318      0.135162     Biso  1.000000 H
   H1184      1.0     0.804402      0.955117      0.187969     Biso  1.000000 H
   H1185      1.0     0.833630      0.903778      0.175762     Biso  1.000000 H
   H1186      1.0     0.129407      0.191941      0.042166     Biso  1.000000 H
   H1187      1.0     0.785080      0.879753      0.247566     Biso  1.000000 H
   H1188      1.0     0.556943      0.799734      0.251942     Biso  1.000000 H
   H1189      1.0     0.556329      0.845841      0.207105     Biso  1.000000 H
   H1190      1.0     0.581321      0.826096      0.342396     Biso  1.000000 H
   H1191      1.0     0.523527      0.839672      0.685116     Biso  1.000000 H
   H1192      1.0     0.523605      0.792576      0.600783     Biso  1.000000 H
   H1193      1.0     0.520991      0.846565      0.594587     Biso  1.000000 H
   H1194      1.0     0.451639      0.770837      0.476135     Biso  1.000000 H
   H1195      1.0     0.468198      0.741600      0.531371     Biso  1.000000 H
   H1196      1.0     0.421557      0.770051      0.530177     Biso  1.000000 H
   H1197      1.0     0.543427      0.775501      0.514347     Biso  1.000000 H
   H1198      1.0     0.554691      0.829857      0.519202     Biso  1.000000 H
   H1199      1.0     0.587415      0.777985      0.392830     Biso  1.000000 H
   H1200      1.0     0.608469      0.782479      0.451481     Biso  1.000000 H
   H1201      1.0     0.566995      0.743486      0.436951     Biso  1.000000 H
   H1202      1.0     0.584420      0.870487      0.466407     Biso  1.000000 H
   H1203      1.0     0.535434      0.890174      0.449158     Biso  1.000000 H
   H1204      1.0     0.521382      0.938527      0.369479     Biso  1.000000 H
   H1205      1.0     0.554319      0.950989      0.418406     Biso  1.000000 H
   H1206      1.0     0.574239      0.957038      0.355356     Biso  1.000000 H
   H1207      1.0     0.531941      0.850779      0.334457     Biso  1.000000 H
   H1208      1.0     0.717705      0.355479      0.782462     Biso  1.000000 H
   H1209      1.0     0.705272      0.349919      0.719679     Biso  1.000000 H
   H1210      1.0     0.736058      0.977901      0.117035     Biso  1.000000 H
   H1211      1.0     0.429296      0.407040      0.030047     Biso  1.000000 H
   H1212      1.0     0.820063      0.034856      0.357423     Biso  1.000000 H
   H1213      1.0     0.383867      0.413050      0.053668     Biso  1.000000 H
   H1214      1.0     0.305397      0.387785      0.964519     Biso  1.000000 H
   H1215      1.0     0.313711      0.356064      0.016070     Biso  1.000000 H
   H1216      1.0     0.323152      0.412558      0.021753     Biso  1.000000 H
   H1217      1.0     0.388035      0.306251      0.978081     Biso  1.000000 H
   H1218      1.0     0.421826      0.334938      0.945846     Biso  1.000000 H
   H1219      1.0     0.412601      0.389297      0.135897     Biso  1.000000 H
   H1220      1.0     0.421939      0.290813      0.864947     Biso  1.000000 H
   H1221      1.0     0.380830      0.253421      0.856782     Biso  1.000000 H
   H1222      1.0     0.323417      0.368098      0.882629     Biso  1.000000 H
   H1223      1.0     0.330422      0.263171      0.792932     Biso  1.000000 H
   H1224      1.0     0.293080      0.286170      0.829533     Biso  1.000000 H
   H1225      1.0     0.292805      0.298802      0.764776     Biso  1.000000 H
   H1226      1.0     0.394782      0.304151      0.774587     Biso  1.000000 H
   H1227      1.0     0.407751      0.353836      0.808080     Biso  1.000000 H
   H1228      1.0     0.407367      0.251414      0.910334     Biso  1.000000 H
   H1229      1.0     0.328447      0.372537      0.691003     Biso  1.000000 H
   H1230      1.0     0.460544      0.391093      0.106599     Biso  1.000000 H
   H1231      1.0     0.382229      0.278046      0.090649     Biso  1.000000 H
   H1232      1.0     0.197275      0.176368      0.063054     Biso  1.000000 H
   H1233      1.0     0.216061      0.136212      0.108241     Biso  1.000000 H
   H1234      1.0     0.154066      0.256746      0.133260     Biso  1.000000 H
   H1235      1.0     0.133885      0.211272      0.172147     Biso  1.000000 H
   H1236      1.0     0.168209      0.253134      0.198262     Biso  1.000000 H
   H1237      1.0     0.237829      0.232482      0.087384     Biso  1.000000 H
   H1238      1.0     0.266876      0.198723      0.126986     Biso  1.000000 H
   H1239      1.0     0.448938      0.344141      0.146649     Biso  1.000000 H
   H1240      1.0     0.239848      0.345999      0.144390     Biso  1.000000 H
   H1241      1.0     0.198044      0.309583      0.147651     Biso  1.000000 H
   H1242      1.0     0.294531      0.283924      0.076405     Biso  1.000000 H
   H1243      1.0     0.323100      0.251300      0.117679     Biso  1.000000 H
   H1244      1.0     0.297122      0.384841      0.151308     Biso  1.000000 H
   H1245      1.0     0.332729      0.401279      0.106121     Biso  1.000000 H
   H1246      1.0     0.290198      0.365188      0.090890     Biso  1.000000 H
   H1247      1.0     0.357967      0.311067      0.051428     Biso  1.000000 H
   H1248      1.0     0.227386      0.313413      0.088518     Biso  1.000000 H
   H1249      1.0     0.365498      0.331959      0.657465     Biso  1.000000 H
   H1250      1.0     0.375463      0.375962      0.870370     Biso  1.000000 H
   H1251      1.0     0.430475      0.305255      0.708595     Biso  1.000000 H
   H1252      1.0     0.550297      0.170586      0.427212     Biso  1.000000 H
   H1253      1.0     0.651168      0.072040      0.468305     Biso  1.000000 H
   H1254      1.0     0.639904      0.122130      0.510913     Biso  1.000000 H
   H1255      1.0     0.601060      0.073047      0.501380     Biso  1.000000 H
   H1256      1.0     0.634961      0.188990      0.416501     Biso  1.000000 H
   H1257      1.0     0.334622      0.319077      0.706814     Biso  1.000000 H
   H1258      1.0     0.741034      0.149809      0.444405     Biso  1.000000 H
   H1259      1.0     0.580162      0.187122      0.471397     Biso  1.000000 H
   H1260      1.0     0.709214      0.198771      0.444842     Biso  1.000000 H
   H1261      1.0     0.681314      0.207795      0.344584     Biso  1.000000 H
   H1262      1.0     0.678512      0.155335      0.314695     Biso  1.000000 H
   H1263      1.0     0.803313      0.132209      0.312974     Biso  1.000000 H
   H1264      1.0     0.776094      0.118272      0.367170     Biso  1.000000 H
   H1265      1.0     0.751467      0.108909      0.307660     Biso  1.000000 H
   H1266      1.0     0.786679      0.192896      0.399217     Biso  1.000000 H
   H1267      1.0     0.749279      0.238353      0.384450     Biso  1.000000 H
   H1268      1.0     0.694865      0.148080      0.476881     Biso  1.000000 H
   H1269      1.0     0.573883      0.171863      0.560567     Biso  1.000000 H
   H1270      1.0     0.621775      0.150854      0.372552     Biso  1.000000 H
   H1271      1.0     0.533130      0.134503      0.589333     Biso  1.000000 H
   H1272      1.0     0.576659      0.110155      0.561022     Biso  1.000000 H
   H1273      1.0     0.460718      0.393342      0.585850     Biso  1.000000 H
   H1274      1.0     0.413047      0.386657      0.614119     Biso  1.000000 H
   H1275      1.0     0.450149      0.426976      0.637221     Biso  1.000000 H
   H1276      1.0     0.480651      0.312043      0.584234     Biso  1.000000 H
   H1277      1.0     0.427451      0.306244      0.594727     Biso  1.000000 H
   H1278      1.0     0.496237      0.271894      0.706384     Biso  1.000000 H
   H1279      1.0     0.508018      0.219098      0.688860     Biso  1.000000 H
   H1280      1.0     0.460579      0.343055      0.735810     Biso  1.000000 H
   H1281      1.0     0.511944      0.200681      0.598399     Biso  1.000000 H
   H1282      1.0     0.506974      0.249114      0.562457     Biso  1.000000 H
   H1283      1.0     0.454999      0.129416      0.590158     Biso  1.000000 H
   H1284      1.0     0.408468      0.162051      0.580999     Biso  1.000000 H
   H1285      1.0     0.427503      0.125977      0.535582     Biso  1.000000 H
   H1286      1.0     0.513831      0.211296      0.494123     Biso  1.000000 H
   H1287      1.0     0.479465      0.172662      0.466441     Biso  1.000000 H
   H1288      1.0     0.532997      0.260355      0.657525     Biso  1.000000 H
   O1         1.0     0.015353      0.217157      0.417145     Biso  1.000000 O
   O2         1.0     0.126573      0.124510      0.484767     Biso  1.000000 O
   O3         1.0     0.240478      0.138357      0.469883     Biso  1.000000 O
   O4         1.0     0.277581      0.343248      0.547701     Biso  1.000000 O
   O5         1.0     0.295681      0.386249      0.363317     Biso  1.000000 O
   O6         1.0     0.224575      0.424429      0.280942     Biso  1.000000 O
   O7         1.0     0.099306      0.462140      0.395782     Biso  1.000000 O
   O8         1.0     0.938194      0.809239      0.227202     Biso  1.000000 O
   O9         1.0     0.998557      0.680054      0.344611     Biso  1.000000 O
   O10        1.0     0.935577      0.720242      0.272950     Biso  1.000000 O
   O11        1.0     0.141252      0.870476      0.224181     Biso  1.000000 O
   O12        1.0     0.156328      0.962404      0.344287     Biso  1.000000 O
   O13        1.0     0.087554      0.961328      0.495132     Biso  1.000000 O
   O14        1.0     0.024645      0.044796      0.337963     Biso  1.000000 O
   O15        1.0     0.006034      0.329056      0.338174     Biso  1.000000 O
   O16        1.0     0.085780      0.600188      0.388314     Biso  1.000000 O
   O17        1.0     0.020219      0.361095      0.193614     Biso  1.000000 O
   O18        1.0     0.610007      0.565187      0.190127     Biso  1.000000 O
   O19        1.0     0.870448      0.254158      0.239276     Biso  1.000000 O
   O20        1.0     0.913796      0.053630      0.366082     Biso  1.000000 O
   O21        1.0     0.506115      0.174167      0.955525     Biso  1.000000 O
   O22        1.0     0.625432      0.105162      0.771778     Biso  1.000000 O
   O23        1.0     0.561176      0.900827      0.792767     Biso  1.000000 O
   O24        1.0     0.540293      0.994965      0.637368     Biso  1.000000 O
   O25        1.0     0.397670      0.954148      0.609517     Biso  1.000000 O
   O26        1.0     0.392329      0.801914      0.612108     Biso  1.000000 O
   O27        1.0     0.431354      0.860764      0.501324     Biso  1.000000 O
   O28        1.0     0.478334      0.839402      0.403149     Biso  1.000000 O
   O29        1.0     0.645565      0.850568      0.393304     Biso  1.000000 O
   O30        1.0     0.513566      0.922279      0.275579     Biso  1.000000 O
   O31        1.0     0.648706      0.928441      0.188489     Biso  1.000000 O
   O32        1.0     0.714200      0.812546      0.117367     Biso  1.000000 O
   O33        1.0     0.774960      0.866823      0.051145     Biso  1.000000 O
   O34        1.0     0.766104      0.023933      0.968854     Biso  1.000000 O
   O35        1.0     0.713434      0.107986      0.125566     Biso  1.000000 O
   O36        1.0     0.903757      0.038202      0.205602     Biso  1.000000 O
   O37        1.0     0.002606      0.148730      0.123468     Biso  1.000000 O
   O38        1.0     0.842402      0.871400      0.361250     Biso  1.000000 O
   O39        1.0     0.880771      0.554295      0.925233     Biso  1.000000 O
   O40        1.0     0.736190      0.253393      0.975625     Biso  1.000000 O
   O41        1.0     0.715738      0.935150      0.513127     Biso  1.000000 O
   O42        1.0     0.770860      0.795748      0.604048     Biso  1.000000 O
   O43        1.0     0.709957      0.737784      0.683418     Biso  1.000000 O
   O44        1.0     0.640208      0.608828      0.624299     Biso  1.000000 O
   O45        1.0     0.518742      0.561772      0.617697     Biso  1.000000 O
   O46        1.0     0.557473      0.697001      0.759933     Biso  1.000000 O
   O47        1.0     0.419635      0.783285      0.812856     Biso  1.000000 O
   O48        1.0     0.706190      0.009519      0.633605     Biso  1.000000 O
   O49        1.0     0.361395      0.694174      0.953126     Biso  1.000000 O
   O50        1.0     0.232859      0.610305      0.924130     Biso  1.000000 O
   O51        1.0     0.171595      0.499434      0.873458     Biso  1.000000 O
   O52        1.0     0.048248      0.514087      0.899303     Biso  1.000000 O
   O53        1.0     0.961771      0.675729      0.765130     Biso  1.000000 O
   O54        1.0     0.874484      0.660630      0.890410     Biso  1.000000 O
   O55        1.0     0.914950      0.816238      0.948026     Biso  1.000000 O
   O56        1.0     0.822563      0.650323      0.117981     Biso  1.000000 O
   O57        1.0     0.328964      0.638659      0.755349     Biso  1.000000 O
   O58        1.0     0.785380      0.137727      0.840786     Biso  1.000000 O
   O59        1.0     0.810563      0.870224      0.743263     Biso  1.000000 O
   O60        1.0     0.638247      0.820535      0.900519     Biso  1.000000 O
   O61        1.0     0.874054      0.170192      0.016066     Biso  1.000000 O
   O62        1.0     0.933780      0.358905      0.942957     Biso  1.000000 O
   O63        1.0     0.068019      0.294404      0.929297     Biso  1.000000 O
   O64        1.0     0.158638      0.333941      0.019961     Biso  1.000000 O
   O65        1.0     0.188002      0.453877      0.042099     Biso  1.000000 O
   O66        1.0     0.184231      0.564264      0.163778     Biso  1.000000 O
   O67        1.0     0.201873      0.663145      0.078059     Biso  1.000000 O
   O68        1.0     0.742123      0.836389      0.842372     Biso  1.000000 O
   O69        1.0     0.167055      0.764889      0.048900     Biso  1.000000 O
   O70        1.0     0.219550      0.899367      0.999653     Biso  1.000000 O
   O71        1.0     0.286347      0.856332      0.798895     Biso  1.000000 O
   O72        1.0     0.237431      0.056640      0.863632     Biso  1.000000 O
   O73        1.0     0.321178      0.035368      0.014225     Biso  1.000000 O
   O74        1.0     0.381802      0.968708      0.048787     Biso  1.000000 O
   O75        1.0     0.480347      0.895803      0.022902     Biso  1.000000 O
   O76        1.0     0.596381      0.844534      0.026913     Biso  1.000000 O
   O77        1.0     0.090689      0.826594      0.917667     Biso  1.000000 O
   O78        1.0     0.520419      0.211583      0.812547     Biso  1.000000 O
   O79        1.0     0.250217      0.582439      0.653476     Biso  1.000000 O
   O80        1.0     0.714225      0.240485      0.705209     Biso  1.000000 O
   O81        1.0     0.646628      0.370745      0.048384     Biso  1.000000 O
   O82        1.0     0.607412      0.281291      0.234395     Biso  1.000000 O
   O83        1.0     0.525895      0.226302      0.246474     Biso  1.000000 O
   O84        1.0     0.511126      0.087932      0.182549     Biso  1.000000 O
   O85        1.0     0.389819      0.067217      0.195385     Biso  1.000000 O
   O86        1.0     0.359744      0.211044      0.334773     Biso  1.000000 O
   O87        1.0     0.352044      0.076258      0.449636     Biso  1.000000 O
   O88        1.0     0.751977      0.417862      0.066319     Biso  1.000000 O
   O89        1.0     0.307219      0.021673      0.276969     Biso  1.000000 O
   O90        1.0     0.246459      0.755052      0.283149     Biso  1.000000 O
   O91        1.0     0.401499      0.816864      0.188654     Biso  1.000000 O
   O92        1.0     0.443681      0.717238      0.232482     Biso  1.000000 O
   O93        1.0     0.376943      0.531162      0.180195     Biso  1.000000 O
   O94        1.0     0.409444      0.564724      0.021851     Biso  1.000000 O
   O95        1.0     0.484799      0.673456      0.996520     Biso  1.000000 O
   O96        1.0     0.672237      0.662191      0.930050     Biso  1.000000 O
   O97        1.0     0.256404      0.959221      0.214641     Biso  1.000000 O
   O98        1.0     0.584433      0.484273      0.938535     Biso  1.000000 O
   O99        1.0     0.828211      0.413292      0.159421     Biso  1.000000 O
   O100       1.0     0.876623      0.547064      0.381030     Biso  1.000000 O
   O101       1.0     0.960582      0.537376      0.118719     Biso  1.000000 O
   O102       1.0     0.465591      0.484169      0.318345     Biso  1.000000 O
   O103       1.0     0.643998      0.455413      0.378684     Biso  1.000000 O
   O104       1.0     0.607603      0.314178      0.524271     Biso  1.000000 O
   O105       1.0     0.648883      0.375371      0.587254     Biso  1.000000 O
   O106       1.0     0.744216      0.366434      0.411638     Biso  1.000000 O
   O107       1.0     0.902998      0.419714      0.466320     Biso  1.000000 O
   O108       1.0     0.848347      0.454396      0.308507     Biso  1.000000 O
   O109       1.0     0.936630      0.299926      0.531913     Biso  1.000000 O
   O110       1.0     0.896642      0.096720      0.592139     Biso  1.000000 O
   O111       1.0     0.923140      0.211587      0.762125     Biso  1.000000 O
   O112       1.0     0.975772      0.366282      0.775405     Biso  1.000000 O
   O113       1.0     0.918481      0.458254      0.734793     Biso  1.000000 O
   O114       1.0     0.811058      0.549901      0.723178     Biso  1.000000 O
   O115       1.0     0.887922      0.573131      0.559290     Biso  1.000000 O
   O116       1.0     0.799158      0.657838      0.472874     Biso  1.000000 O
   O117       1.0     0.801222      0.127216      0.515052     Biso  1.000000 O
   O118       1.0     0.730300      0.456424      0.857328     Biso  1.000000 O
   O119       1.0     0.386474      0.655174      0.398249     Biso  1.000000 O
   O120       1.0     0.415641      0.452881      0.464904     Biso  1.000000 O
   O121       1.0     0.152085      0.084451      0.162264     Biso  1.000000 O
   O122       1.0     0.190652      0.172586      0.239551     Biso  1.000000 O
   O123       1.0     0.231971      0.295003      0.232045     Biso  1.000000 O
   O124       1.0     0.379489      0.286187      0.192443     Biso  1.000000 O
   O125       1.0     0.476189      0.342626      0.022247     Biso  1.000000 O
   O126       1.0     0.423251      0.421253      0.934408     Biso  1.000000 O
   O127       1.0     0.332053      0.249511      0.959777     Biso  1.000000 O
   O128       1.0     0.119633      0.126403      0.954482     Biso  1.000000 O
   O129       1.0     0.335927      0.421924      0.815180     Biso  1.000000 O
   O130       1.0     0.512894      0.396847      0.702370     Biso  1.000000 O
   O131       1.0     0.384533      0.246899      0.631734     Biso  1.000000 O
   O132       1.0     0.444876      0.259096      0.486217     Biso  1.000000 O
   O133       1.0     0.510060      0.062235      0.531913     Biso  1.000000 O
   O134       1.0     0.558927      0.104391      0.363487     Biso  1.000000 O
   O135       1.0     0.674147      0.070407      0.347420     Biso  1.000000 O
   O136       1.0     0.750772      0.241931      0.276513     Biso  1.000000 O
   O137       1.0     0.433364      0.426627      0.758664     Biso  1.000000 O
   O138       1.0     0.065486      0.930233      0.031459     Biso  1.000000 O
   O139       1.0     0.948508      0.939153      0.050750     Biso  1.000000 O
   O140       1.0     0.902261      0.995630      0.895152     Biso  1.000000 O
   O141       1.0     0.327052      0.598894      0.550959     Biso  1.000000 O
   O142       1.0     0.154564      0.514143      0.664775     Biso  1.000000 O
   O143       1.0     0.087806      0.405303      0.642031     Biso  1.000000 O
   O144       1.0     0.086824      0.271884      0.654455     Biso  1.000000 O
   O145       1.0     0.243677      0.202062      0.798861     Biso  1.000000 O
   O146       1.0     0.090947      0.124448      0.649804     Biso  1.000000 O
   O147       1.0     0.265503      0.070459      0.692257     Biso  1.000000 O
   O148       1.0     0.171171      0.900754      0.697805     Biso  1.000000 O
   O149       1.0     0.189828      0.940931      0.496330     Biso  1.000000 O
   O150       1.0     0.306531      0.805135      0.466897     Biso  1.000000 O
   O151       1.0     0.227150      0.689126      0.471827     Biso  1.000000 O
   O152       1.0     0.173175      0.746406      0.634630     Biso  1.000000 O
   O153       1.0     0.081852      0.760336      0.684661     Biso  1.000000 O
   O154       1.0     0.994437      0.808481      0.712583     Biso  1.000000 O
   O155       1.0     0.906946      0.956539      0.629429     Biso  1.000000 O
   O156       1.0     0.931948      0.004408      0.734921     Biso  1.000000 O
   O157       1.0     0.072934      0.992357      0.843476     Biso  1.000000 O
   O158       1.0     0.552025      0.333997      0.819639     Biso  1.000000 O
   O159       1.0     0.721411      0.698548      0.405740     Biso  1.000000 O
   O160       1.0     0.743738      0.169701      0.240410     Biso  1.000000 O
   O161       1.0     0.658024      0.534868      0.248549     Biso  1.000000 O
   O162       1.0     0.228943      0.181074      0.398939     Biso  1.000000 O
   O163       1.0     0.310806      0.315261      0.477393     Biso  1.000000 O
   O164       1.0     0.317530      0.420755      0.436684     Biso  1.000000 O
   O165       1.0     0.279413      0.478547      0.283914     Biso  1.000000 O
   O166       1.0     0.141927      0.519184      0.424707     Biso  1.000000 O
   O167       1.0     0.028138      0.552704      0.390385     Biso  1.000000 O
   O168       1.0     0.065257      0.689839      0.317810     Biso  1.000000 O
   O169       1.0     0.125852      0.147183      0.405334     Biso  1.000000 O
   O170       1.0     0.920581      0.671166      0.208740     Biso  1.000000 O
   O171       1.0     0.078953      0.890655      0.187242     Biso  1.000000 O
   O172       1.0     0.103409      0.956823      0.285631     Biso  1.000000 O
   O173       1.0     0.059767      0.889499      0.509165     Biso  1.000000 O
   O174       1.0     0.020603      0.074223      0.417371     Biso  1.000000 O
   O175       1.0     0.894058      0.041558      0.444860     Biso  1.000000 O
   O176       1.0     0.799884      0.916168      0.417706     Biso  1.000000 O
   O177       1.0     0.756368      0.179873      0.776406     Biso  1.000000 O
   O178       1.0     0.957807      0.810965      0.144051     Biso  1.000000 O
   O179       1.0     0.745657      0.329540      0.958090     Biso  1.000000 O
   O180       1.0     0.061231      0.191606      0.352267     Biso  1.000000 O
   O181       1.0     0.964673      0.339636      0.241751     Biso  1.000000 O
   O182       1.0     0.504409      0.931731      0.837175     Biso  1.000000 O
   O183       1.0     0.550539      0.921282      0.666044     Biso  1.000000 O
   O184       1.0     0.359450      0.949426      0.681147     Biso  1.000000 O
   O185       1.0     0.431955      0.748727      0.648731     Biso  1.000000 O
   O186       1.0     0.491950      0.900491      0.526908     Biso  1.000000 O
   O187       1.0     0.491255      0.763048      0.399406     Biso  1.000000 O
   O188       1.0     0.644321      0.928074      0.397432     Biso  1.000000 O
   O189       1.0     0.057544      0.384339      0.327742     Biso  1.000000 O
   O190       1.0     0.575612      0.950464      0.241834     Biso  1.000000 O
   O191       1.0     0.742000      0.772238      0.187400     Biso  1.000000 O
   O192       1.0     0.829656      0.855626      0.103436     Biso  1.000000 O
   O193       1.0     0.712697      0.019248      0.030073     Biso  1.000000 O
   O194       1.0     0.732972      0.043841      0.170697     Biso  1.000000 O
   O195       1.0     0.901017      0.072178      0.126504     Biso  1.000000 O
   O196       1.0     0.883695      0.197477      0.297544     Biso  1.000000 O
   O197       1.0     0.973755      0.221721      0.110467     Biso  1.000000 O
   O198       1.0     0.614185      0.876061      0.136643     Biso  1.000000 O
   O199       1.0     0.652408      0.056436      0.832821     Biso  1.000000 O
   O200       1.0     0.880199      0.185340      0.931180     Biso  1.000000 O
   O201       1.0     0.025724      0.360261      0.933078     Biso  1.000000 O
   O202       1.0     0.608020      0.611921      0.547393     Biso  1.000000 O
   O203       1.0     0.563082      0.580124      0.685256     Biso  1.000000 O
   O204       1.0     0.553663      0.625256      0.792970     Biso  1.000000 O
   O205       1.0     0.488470      0.774767      0.842556     Biso  1.000000 O
   O206       1.0     0.382626      0.748579      0.899287     Biso  1.000000 O
   O207       1.0     0.295387      0.709564      0.738755     Biso  1.000000 O
   O208       1.0     0.267891      0.554067      0.882328     Biso  1.000000 O
   O209       1.0     0.751609      0.683179      0.639948     Biso  1.000000 O
   O210       1.0     0.136370      0.554157      0.927470     Biso  1.000000 O
   O211       1.0     0.943910      0.602385      0.792929     Biso  1.000000 O
   O212       1.0     0.889243      0.722733      0.840075     Biso  1.000000 O
   O213       1.0     0.852529      0.774940      0.926698     Biso  1.000000 O
   O214       1.0     0.784724      0.670702      0.047514     Biso  1.000000 O
   O215       1.0     0.834867      0.511593      0.978296     Biso  1.000000 O
   O216       1.0     0.930679      0.473004      0.095820     Biso  1.000000 O
   O217       1.0     0.663284      0.639908      0.253370     Biso  1.000000 O
   O218       1.0     0.052614      0.485577      0.818780     Biso  1.000000 O
   O219       1.0     0.937806      0.296276      0.890614     Biso  1.000000 O
   O220       1.0     0.784075      0.800665      0.519775     Biso  1.000000 O
   O221       1.0     0.765635      0.977299      0.599419     Biso  1.000000 O
   O222       1.0     0.127332      0.392511      0.973490     Biso  1.000000 O
   O223       1.0     0.192277      0.430834      0.123513     Biso  1.000000 O
   O224       1.0     0.207886      0.550458      0.084006     Biso  1.000000 O
   O225       1.0     0.150405      0.680386      0.136300     Biso  1.000000 O
   O226       1.0     0.093096      0.779742      0.054753     Biso  1.000000 O
   O227       1.0     0.098411      0.774459      0.850718     Biso  1.000000 O
   O228       1.0     0.156296      0.923933      0.964338     Biso  1.000000 O
   O229       1.0     0.643281      0.941239      0.522012     Biso  1.000000 O
   O230       1.0     0.241754      0.913788      0.797286     Biso  1.000000 O
   O231       1.0     0.330619      0.106276      0.973806     Biso  1.000000 O
   O232       1.0     0.386807      0.933441      0.973610     Biso  1.000000 O
   O233       1.0     0.499491      0.949086      0.082894     Biso  1.000000 O
   O234       1.0     0.543389      0.844419      0.965878     Biso  1.000000 O
   O235       1.0     0.695569      0.822220      0.951228     Biso  1.000000 O
   O236       1.0     0.789858      0.881655      0.883013     Biso  1.000000 O
   O237       1.0     0.827077      0.941212      0.784071     Biso  1.000000 O
   O238       1.0     0.242921      0.028334      0.946241     Biso  1.000000 O
   O239       1.0     0.489207      0.112003      0.905991     Biso  1.000000 O
   O240       1.0     0.503288      0.256234      0.882256     Biso  1.000000 O
   O241       1.0     0.586578      0.356365      0.890682     Biso  1.000000 O
   O242       1.0     0.665023      0.255587      0.184835     Biso  1.000000 O
   O243       1.0     0.583179      0.175866      0.232659     Biso  1.000000 O
   O244       1.0     0.495501      0.103373      0.098276     Biso  1.000000 O
   O245       1.0     0.441109      0.054491      0.256221     Biso  1.000000 O
   O246       1.0     0.309607      0.154145      0.353164     Biso  1.000000 O
   O247       1.0     0.381108      0.001806      0.457014     Biso  1.000000 O
   O248       1.0     0.265141      0.023978      0.346230     Biso  1.000000 O
   O249       1.0     0.576433      0.403023      0.058233     Biso  1.000000 O
   O250       1.0     0.325901      0.944180      0.196586     Biso  1.000000 O
   O251       1.0     0.365899      0.829154      0.114441     Biso  1.000000 O
   O252       1.0     0.378810      0.683767      0.248620     Biso  1.000000 O
   O253       1.0     0.356487      0.556101      0.105507     Biso  1.000000 O
   O254       1.0     0.443034      0.494559      0.026454     Biso  1.000000 O
   O255       1.0     0.533715      0.675034      0.059344     Biso  1.000000 O
   O256       1.0     0.664661      0.633335      0.008959     Biso  1.000000 O
   O257       1.0     0.554229      0.512271      0.869673     Biso  1.000000 O
   O258       1.0     0.233198      0.812366      0.223846     Biso  1.000000 O
   O259       1.0     0.739660      0.533051      0.848164     Biso  1.000000 O
   O260       1.0     0.751816      0.351808      0.116761     Biso  1.000000 O
   O261       1.0     0.879191      0.510859      0.259546     Biso  1.000000 O
   O262       1.0     0.511866      0.450327      0.263866     Biso  1.000000 O
   O263       1.0     0.646786      0.390304      0.329105     Biso  1.000000 O
   O264       1.0     0.543550      0.355590      0.533585     Biso  1.000000 O
   O265       1.0     0.690328      0.439283      0.606018     Biso  1.000000 O
   O266       1.0     0.721780      0.306455      0.458923     Biso  1.000000 O
   O267       1.0     0.891159      0.390840      0.544869     Biso  1.000000 O
   O268       1.0     0.940792      0.292380      0.448969     Biso  1.000000 O
   O269       1.0     0.801368      0.386405      0.233062     Biso  1.000000 O
   O270       1.0     0.868215      0.141896      0.486756     Biso  1.000000 O
   O271       1.0     0.852141      0.226067      0.779069     Biso  1.000000 O
   O272       1.0     0.979009      0.366119      0.691474     Biso  1.000000 O
   O273       1.0     0.858897      0.463281      0.785344     Biso  1.000000 O
   O274       1.0     0.876800      0.538663      0.688378     Biso  1.000000 O
   O275       1.0     0.847963      0.617066      0.614978     Biso  1.000000 O
   O276       1.0     0.858487      0.612222      0.473043     Biso  1.000000 O
   O277       1.0     0.859857      0.614679      0.339101     Biso  1.000000 O
   O278       1.0     0.945716      0.154619      0.592026     Biso  1.000000 O
   O279       1.0     0.430976      0.610333      0.353416     Biso  1.000000 O
   O280       1.0     0.463723      0.507458      0.486813     Biso  1.000000 O
   O281       1.0     0.373683      0.579816      0.612654     Biso  1.000000 O
   O282       1.0     0.093509      0.132153      0.164953     Biso  1.000000 O
   O283       1.0     0.246381      0.142973      0.193897     Biso  1.000000 O
   O284       1.0     0.288812      0.248982      0.228463     Biso  1.000000 O
   O285       1.0     0.344752      0.355175      0.210344     Biso  1.000000 O
   O286       1.0     0.450327      0.275797      0.047752     Biso  1.000000 O
   O287       1.0     0.356509      0.452638      0.934705     Biso  1.000000 O
   O288       1.0     0.284763      0.299449      0.924796     Biso  1.000000 O
   O289       1.0     0.052746      0.120601      0.985636     Biso  1.000000 O
   O290       1.0     0.279312      0.385692      0.773499     Biso  1.000000 O
   O291       1.0     0.540981      0.349829      0.641552     Biso  1.000000 O
   O292       1.0     0.426075      0.202595      0.683949     Biso  1.000000 O
   O293       1.0     0.388678      0.216171      0.513485     Biso  1.000000 O
   O294       1.0     0.492073      0.087572      0.453982     Biso  1.000000 O
   O295       1.0     0.596750      0.044634      0.408629     Biso  1.000000 O
   O296       1.0     0.722649      0.068127      0.410211     Biso  1.000000 O
   O297       1.0     0.640644      0.240325      0.708309     Biso  1.000000 O
   O298       1.0     0.379521      0.441546      0.701469     Biso  1.000000 O
   O299       1.0     0.111332      0.964573      0.086111     Biso  1.000000 O
   O300       1.0     0.984770      0.904744      0.989097     Biso  1.000000 O
   O301       1.0     0.913854      0.072576      0.877910     Biso  1.000000 O
   O302       1.0     0.220791      0.557361      0.581861     Biso  1.000000 O
   O303       1.0     0.149097      0.472391      0.593570     Biso  1.000000 O
   O304       1.0     0.122938      0.355109      0.592651     Biso  1.000000 O
   O305       1.0     0.069787      0.283865      0.742868     Biso  1.000000 O
   O306       1.0     0.171104      0.194689      0.806958     Biso  1.000000 O
   O307       1.0     0.146027      0.163580      0.607351     Biso  1.000000 O
   O308       1.0     0.291587      0.058629      0.613456     Biso  1.000000 O
   O309       1.0     0.131035      0.957930      0.659506     Biso  1.000000 O
   O310       1.0     0.261648      0.940845      0.507647     Biso  1.000000 O
   O311       1.0     0.291885      0.751153      0.526697     Biso  1.000000 O
   O312       1.0     0.184063      0.719539      0.409141     Biso  1.000000 O
   O313       1.0     0.145410      0.678255      0.660787     Biso  1.000000 O
   O314       1.0     0.035702      0.701122      0.678612     Biso  1.000000 O
   O315       1.0     0.936097      0.787524      0.662470     Biso  1.000000 O
   O316       1.0     0.923664      0.896845      0.684265     Biso  1.000000 O
   O317       1.0     0.969067      0.064577      0.698780     Biso  1.000000 O
   O318       1.0     0.080801      0.917618      0.825846     Biso  1.000000 O
   O319       1.0     0.608572      0.680445      0.213466     Biso  1.000000 O
   O320       1.0     0.700900      0.714592      0.325757     Biso  1.000000 O

# Number_of_total_atoms: 2408
# Number_of_atom_type: 3
# Name_of_each_atom:  C  H O
# Number_of_each_atom: 800 1288 320 
# Created_by: Lihua Chen (lihua.chen@mse.gatech.edu)
# Tool: VASP
# K-points: 1 1 1
# Pseudopotential: PBE-HSE06
# Material_class: MC_Pol
# Geometry_class: GC_PD
# Bandgap_(eV): 4.77

# Note: average bandgap of 5 configurations
# Note:  HSE06 Band gap is derived from PBE band gap, based on Eg (HSE06)=1.140*Eg (PBE) + 0.799, R2=0.97


