#======================================================================

# Note: Amorphous region of syndiotactic poly(methyl methacrylate)
# Common_name: Amorphous region
#----------------------------------------------------------------------

data_VESTA_phase_1


_chemical_name_common                  'C  H  O                               '
_cell_length_a                         26.48112
_cell_length_b                         31.87142
_cell_length_c                         28.45663
_cell_angle_alpha                      90
_cell_angle_beta                       90
_cell_angle_gamma                      90
_space_group_name_H-M_alt              'P 1'
_space_group_IT_number                 1

loop_
_space_group_symop_operation_xyz
   'x, y, z'

loop_
   _atom_site_label
   _atom_site_occupancy
   _atom_site_fract_x
   _atom_site_fract_y
   _atom_site_fract_z
   _atom_site_adp_type
   _atom_site_B_iso_or_equiv
   _atom_site_type_symbol
   C1         1.0     0.026657      0.615335      0.795001     Biso  1.000000 C
   C2         1.0     0.235693      0.684670      0.689740     Biso  1.000000 C
   C3         1.0     0.363331      0.746101      0.713625     Biso  1.000000 C
   C4         1.0     0.317680      0.720706      0.698753     Biso  1.000000 C
   C5         1.0     0.468991      0.668198      0.739875     Biso  1.000000 C
   C6         1.0     0.383489      0.759581      0.663809     Biso  1.000000 C
   C7         1.0     0.385199      0.825906      0.747747     Biso  1.000000 C
   C8         1.0     0.348116      0.787217      0.742153     Biso  1.000000 C
   C9         1.0     0.345941      0.894469      0.645669     Biso  1.000000 C
   C10        1.0     0.440106      0.810673      0.760089     Biso  1.000000 C
   C11        1.0     0.395660      0.888988      0.816311     Biso  1.000000 C
   C12        1.0     0.364483      0.854437      0.790026     Biso  1.000000 C
   C13        1.0     0.518645      0.878891      0.877063     Biso  1.000000 C
   C14        1.0     0.424084      0.921845      0.780095     Biso  1.000000 C
   C15        1.0     0.327736      0.911962      0.889907     Biso  1.000000 C
   C16        1.0     0.358803      0.921632      0.843289     Biso  1.000000 C
   C17        1.0     0.297903      0.799265      0.908135     Biso  1.000000 C
   C18        1.0     0.286155      0.946588      0.889275     Biso  1.000000 C
   C19        1.0     0.345224      0.915655      0.989076     Biso  1.000000 C
   C20        1.0     0.363610      0.914258      0.936178     Biso  1.000000 C
   C21        1.0     0.256243      0.989746      0.045802     Biso  1.000000 C
   C22        1.0     0.306789      0.879459      0.000378     Biso  1.000000 C
   C23        1.0     0.185993      0.787424      0.759354     Biso  1.000000 C
   C24        1.0     0.395833      0.924973      0.076224     Biso  1.000000 C
   C25        1.0     0.291204      0.662236      0.761368     Biso  1.000000 C
   C26        1.0     0.208776      0.644854      0.804511     Biso  1.000000 C
   C27        1.0     0.658522      0.503979      0.846698     Biso  1.000000 C
   C28        1.0     0.606534      0.545593      0.003010     Biso  1.000000 C
   C29        1.0     0.514042      0.491510      0.933974     Biso  1.000000 C
   C30        1.0     0.568099      0.477764      0.958176     Biso  1.000000 C
   C31        1.0     0.527270      0.565347      0.830747     Biso  1.000000 C
   C32        1.0     0.477159      0.451797      0.935095     Biso  1.000000 C
   C33        1.0     0.439264      0.535725      0.976520     Biso  1.000000 C
   C34        1.0     0.497426      0.527432      0.967872     Biso  1.000000 C
   C35        1.0     0.443596      0.653950      0.009037     Biso  1.000000 C
   C36        1.0     0.420557      0.502203      0.006718     Biso  1.000000 C
   C37        1.0     0.348630      0.543409      0.928812     Biso  1.000000 C
   C38        1.0     0.406331      0.540864      0.929357     Biso  1.000000 C
   C39        1.0     0.318805      0.431970      0.903616     Biso  1.000000 C
   C40        1.0     0.329269      0.573828      0.967271     Biso  1.000000 C
   C41        1.0     0.286503      0.581584      0.859795     Biso  1.000000 C
   C42        1.0     0.338426      0.558905      0.875436     Biso  1.000000 C
   C43        1.0     0.316218      0.680899      0.917584     Biso  1.000000 C
   C44        1.0     0.241546      0.550425      0.859605     Biso  1.000000 C
   C45        1.0     0.256693      0.624406      0.778685     Biso  1.000000 C
   C46        1.0     0.294886      0.596346      0.808517     Biso  1.000000 C
   C47        1.0     0.180098      0.542913      0.718562     Biso  1.000000 C
   C48        1.0     0.272598      0.699414      0.728623     Biso  1.000000 C
   C49        1.0     0.657922      0.479897      0.987709     Biso  1.000000 C
   C50        1.0     0.395108      0.916288      0.019727     Biso  1.000000 C
   C51        1.0     0.355605      0.902809      0.105858     Biso  1.000000 C
   C52        1.0     0.136815      0.855067      0.169242     Biso  1.000000 C
   C53        1.0     0.981873      0.829791      0.153917     Biso  1.000000 C
   C54        1.0     0.137109      0.893393      0.091665     Biso  1.000000 C
   C55        1.0     0.175888      0.797455      0.074660     Biso  1.000000 C
   C56        1.0     0.123458      0.814947      0.092603     Biso  1.000000 C
   C57        1.0     0.250182      0.788509      0.187038     Biso  1.000000 C
   C58        1.0     0.188878      0.817714      0.028751     Biso  1.000000 C
   C59        1.0     0.194146      0.716363      0.037118     Biso  1.000000 C
   C60        1.0     0.159884      0.749904      0.064550     Biso  1.000000 C
   C61        1.0     0.168811      0.607309      0.992643     Biso  1.000000 C
   C62        1.0     0.214508      0.733915      0.989128     Biso  1.000000 C
   C63        1.0     0.248679      0.670714      0.104344     Biso  1.000000 C
   C64        1.0     0.244884      0.703085      0.064072     Biso  1.000000 C
   C65        1.0     0.235270      0.554243      0.090094     Biso  1.000000 C
   C66        1.0     0.202295      0.674416      0.137264     Biso  1.000000 C
   C67        1.0     0.320221      0.652685      0.176464     Biso  1.000000 C
   C68        1.0     0.297869      0.678357      0.133767     Biso  1.000000 C
   C69        1.0     0.230550      0.687190      0.273879     Biso  1.000000 C
   C70        1.0     0.335028      0.606977      0.160657     Biso  1.000000 C
   C71        1.0     0.413574      0.692502      0.169246     Biso  1.000000 C
   C72        1.0     0.368773      0.672854      0.197679     Biso  1.000000 C
   C73        1.0     0.115207      0.856241      0.119922     Biso  1.000000 C
   C74        1.0     0.494711      0.874750      0.158486     Biso  1.000000 C
   C75        1.0     0.070745      0.887745      0.224646     Biso  1.000000 C
   C76        1.0     0.157603      0.868980      0.252938     Biso  1.000000 C
   C77        1.0     0.410028      0.999696      0.127653     Biso  1.000000 C
   C78        1.0     0.395603      0.974231      0.082577     Biso  1.000000 C
   C79        1.0     0.547500      0.014414      0.095460     Biso  1.000000 C
   C80        1.0     0.394685      0.044655      0.113765     Biso  1.000000 C
   C81        1.0     0.368674      0.017314      0.219037     Biso  1.000000 C
   C82        1.0     0.378028      0.987321      0.174268     Biso  1.000000 C
   C83        1.0     0.318220      0.121972      0.242695     Biso  1.000000 C
   C84        1.0     0.418706      0.035985      0.239802     Biso  1.000000 C
   C85        1.0     0.345628      0.953187      0.285149     Biso  1.000000 C
   C86        1.0     0.334582      0.993408      0.256758     Biso  1.000000 C
   C87        1.0     0.378867      0.842548      0.253852     Biso  1.000000 C
   C88        1.0     0.401811      0.957397      0.304445     Biso  1.000000 C
   C89        1.0     0.251210      0.948828      0.330140     Biso  1.000000 C
   C90        1.0     0.312049      0.947445      0.329005     Biso  1.000000 C
   C91        1.0     0.178554      0.040795      0.279347     Biso  1.000000 C
   C92        1.0     0.242332      0.936272      0.380518     Biso  1.000000 C
   C93        1.0     0.178108      0.893083      0.297905     Biso  1.000000 C
   C94        1.0     0.227589      0.917471      0.292806     Biso  1.000000 C
   C95        1.0     0.205921      0.784600      0.354890     Biso  1.000000 C
   C96        1.0     0.135508      0.923313      0.313957     Biso  1.000000 C
   C97        1.0     0.127132      0.886779      0.209894     Biso  1.000000 C
   C98        1.0     0.215826      0.970845      0.166898     Biso  1.000000 C
   C99        1.0     0.383341      0.769213      0.071919     Biso  1.000000 C
   C100       1.0     0.613313      0.508776      0.968546     Biso  1.000000 C
   C101       1.0     0.805767      0.411284      0.979559     Biso  1.000000 C
   C102       1.0     0.567869      0.434804      0.134287     Biso  1.000000 C
   C103       1.0     0.447145      0.422671      0.153243     Biso  1.000000 C
   C104       1.0     0.493779      0.427681      0.189800     Biso  1.000000 C
   C105       1.0     0.466072      0.367662      0.035931     Biso  1.000000 C
   C106       1.0     0.428744      0.464015      0.133911     Biso  1.000000 C
   C107       1.0     0.350265      0.383620      0.164368     Biso  1.000000 C
   C108       1.0     0.401838      0.403713      0.181468     Biso  1.000000 C
   C109       1.0     0.311698      0.414262      0.039652     Biso  1.000000 C
   C110       1.0     0.355578      0.337450      0.152125     Biso  1.000000 C
   C111       1.0     0.256659      0.373849      0.216184     Biso  1.000000 C
   C112       1.0     0.312755      0.389315      0.208969     Biso  1.000000 C
   C113       1.0     0.219232      0.266675      0.166238     Biso  1.000000 C
   C114       1.0     0.224640      0.394099      0.176004     Biso  1.000000 C
   C115       1.0     0.193176      0.371085      0.296545     Biso  1.000000 C
   C116       1.0     0.236482      0.389591      0.265350     Biso  1.000000 C
   C117       1.0     0.091854      0.414861      0.222745     Biso  1.000000 C
   C118       1.0     0.204505      0.327993      0.319067     Biso  1.000000 C
   C119       1.0     0.144507      0.394702      0.379106     Biso  1.000000 C
   C120       1.0     0.185582      0.401291      0.337829     Biso  1.000000 C
   C121       1.0     0.231815      0.342458      0.469049     Biso  1.000000 C
   C122       1.0     0.095027      0.374003      0.359897     Biso  1.000000 C
   C123       1.0     0.483530      0.554199      0.213106     Biso  1.000000 C
   C124       1.0     0.158695      0.469650      0.430299     Biso  1.000000 C
   C125       1.0     0.578986      0.447815      0.225264     Biso  1.000000 C
   C126       1.0     0.640623      0.507816      0.206155     Biso  1.000000 C
   C127       1.0     0.585433      0.636091      0.646857     Biso  1.000000 C
   C128       1.0     0.486781      0.510586      0.621899     Biso  1.000000 C
   C129       1.0     0.589685      0.502237      0.560090     Biso  1.000000 C
   C130       1.0     0.544165      0.534922      0.555887     Biso  1.000000 C
   C131       1.0     0.509707      0.408727      0.532374     Biso  1.000000 C
   C132       1.0     0.619615      0.513542      0.604835     Biso  1.000000 C
   C133       1.0     0.675244      0.481720      0.504781     Biso  1.000000 C
   C134       1.0     0.622557      0.505199      0.513468     Biso  1.000000 C
   C135       1.0     0.809721      0.507314      0.540432     Biso  1.000000 C
   C136       1.0     0.679398      0.438694      0.532374     Biso  1.000000 C
   C137       1.0     0.694201      0.500085      0.410047     Biso  1.000000 C
   C138       1.0     0.680277      0.469973      0.452255     Biso  1.000000 C
   C139       1.0     0.831933      0.473506      0.414127     Biso  1.000000 C
   C140       1.0     0.665890      0.541774      0.415076     Biso  1.000000 C
   C141       1.0     0.689495      0.486850      0.311164     Biso  1.000000 C
   C142       1.0     0.678771      0.474099      0.366437     Biso  1.000000 C
   C143       1.0     0.738364      0.599384      0.298850     Biso  1.000000 C
   C144       1.0     0.741895      0.468178      0.297290     Biso  1.000000 C
   C145       1.0     0.634101      0.465147      0.229991     Biso  1.000000 C
   C146       1.0     0.643810      0.466007      0.285978     Biso  1.000000 C
   C147       1.0     0.743711      0.420628      0.166139     Biso  1.000000 C
   C148       1.0     0.542481      0.453171      0.179922     Biso  1.000000 C
   C149       1.0     0.711515      0.508754      0.062048     Biso  1.000000 C
   C150       1.0     0.124787      0.437461      0.399582     Biso  1.000000 C
   C151       1.0     0.118655      0.508271      0.434583     Biso  1.000000 C
   C152       1.0     0.137464      0.341337      0.942317     Biso  1.000000 C
   C153       1.0     0.107488      0.351987      0.113902     Biso  1.000000 C
   C154       1.0     0.102364      0.277989      0.984940     Biso  1.000000 C
   C155       1.0     0.862664      0.694861      0.177824     Biso  1.000000 C
   C156       1.0     0.918051      0.680660      0.183808     Biso  1.000000 C
   C157       1.0     0.798747      0.705623      0.296457     Biso  1.000000 C
   C158       1.0     0.857581      0.742274      0.171361     Biso  1.000000 C
   C159       1.0     0.794076      0.677523      0.109088     Biso  1.000000 C
   C160       1.0     0.843983      0.666117      0.135735     Biso  1.000000 C
   C161       1.0     0.753730      0.770129      0.041827     Biso  1.000000 C
   C162       1.0     0.751226      0.681787      0.144545     Biso  1.000000 C
   C163       1.0     0.806280      0.625275      0.028460     Biso  1.000000 C
   C164       1.0     0.779424      0.642648      0.073075     Biso  1.000000 C
   C165       1.0     0.839648      0.686339      0.921675     Biso  1.000000 C
   C166       1.0     0.862464      0.613173      0.037509     Biso  1.000000 C
   C167       1.0     0.780609      0.552665      0.979250     Biso  1.000000 C
   C168       1.0     0.772691      0.585908      0.016761     Biso  1.000000 C
   C169       1.0     0.902069      0.496106      0.963307     Biso  1.000000 C
   C170       1.0     0.788728      0.574970      0.930060     Biso  1.000000 C
   C171       1.0     0.709778      0.493464      0.008254     Biso  1.000000 C
   C172       1.0     0.733074      0.525738      0.971590     Biso  1.000000 C
   C173       1.0     0.107379      0.326594      0.986482     Biso  1.000000 C
   C174       1.0     0.235614      0.521072      0.335344     Biso  1.000000 C
   C175       1.0     0.066402      0.375519      0.901026     Biso  1.000000 C
   C176       1.0     0.152724      0.394495      0.876663     Biso  1.000000 C
   C177       1.0     0.175828      0.479769      0.525107     Biso  1.000000 C
   C178       1.0     0.164710      0.450394      0.481310     Biso  1.000000 C
   C179       1.0     0.105230      0.565281      0.588579     Biso  1.000000 C
   C180       1.0     0.222797      0.510163      0.513784     Biso  1.000000 C
   C181       1.0     0.161867      0.421026      0.598060     Biso  1.000000 C
   C182       1.0     0.194735      0.452541      0.567873     Biso  1.000000 C
   C183       1.0     0.040486      0.449852      0.663331     Biso  1.000000 C
   C184       1.0     0.129882      0.393437      0.565793     Biso  1.000000 C
   C185       1.0     0.228741      0.403883      0.673518     Biso  1.000000 C
   C186       1.0     0.194682      0.393230      0.630372     Biso  1.000000 C
   C187       1.0     0.337112      0.448167      0.609319     Biso  1.000000 C
   C188       1.0     0.257108      0.360587      0.684381     Biso  1.000000 C
   C189       1.0     0.220844      0.417167      0.769208     Biso  1.000000 C
   C190       1.0     0.197503      0.416656      0.718331     Biso  1.000000 C
   C191       1.0     0.286590      0.329515      0.832072     Biso  1.000000 C
   C192       1.0     0.266923      0.446705      0.770557     Biso  1.000000 C
   C193       1.0     0.137876      0.425698      0.834131     Biso  1.000000 C
   C194       1.0     0.186699      0.441913      0.807055     Biso  1.000000 C
   C195       1.0     0.063729      0.350506      0.760377     Biso  1.000000 C
   C196       1.0     0.115464      0.467667      0.856927     Biso  1.000000 C
   C197       1.0     0.119010      0.385007      0.919753     Biso  1.000000 C
   C198       1.0     0.165031      0.464649      0.017559     Biso  1.000000 C
   C199       1.0     0.436164      0.660225      0.135999     Biso  1.000000 C
   C200       1.0     0.505625      0.722118      0.204826     Biso  1.000000 C
   C201       1.0     0.448577      0.709492      0.211162     Biso  1.000000 C
   C202       1.0     0.535661      0.112596      0.731811     Biso  1.000000 C
   C203       1.0     0.435050      0.107921      0.847819     Biso  1.000000 C
   C204       1.0     0.520658      0.033843      0.713499     Biso  1.000000 C
   C205       1.0     0.570833      0.016931      0.819484     Biso  1.000000 C
   C206       1.0     0.564791      0.057497      0.787647     Biso  1.000000 C
   C207       1.0     0.579662      0.912159      0.760345     Biso  1.000000 C
   C208       1.0     0.520677      0.000499      0.840949     Biso  1.000000 C
   C209       1.0     0.633214      0.996693      0.893471     Biso  1.000000 C
   C210       1.0     0.611398      0.030018      0.856488     Biso  1.000000 C
   C211       1.0     0.514189      0.004487      0.967629     Biso  1.000000 C
   C212       1.0     0.652239      0.955662      0.870833     Biso  1.000000 C
   C213       1.0     0.703120      0.024417      0.964783     Biso  1.000000 C
   C214       1.0     0.679526      0.026792      0.914833     Biso  1.000000 C
   C215       1.0     0.710261      0.921942      0.031531     Biso  1.000000 C
   C216       1.0     0.667162      0.044840      0.002107     Biso  1.000000 C
   C217       1.0     0.794642      0.060380      0.996744     Biso  1.000000 C
   C218       1.0     0.756086      0.050801      0.958419     Biso  1.000000 C
   C219       1.0     0.715669      0.146116      0.050975     Biso  1.000000 C
   C220       1.0     0.809615      0.020771      0.020732     Biso  1.000000 C
   C221       1.0     0.878090      0.068099      0.934530     Biso  1.000000 C
   C222       1.0     0.845369      0.083417      0.977472     Biso  1.000000 C
   C223       1.0     0.523286      0.068278      0.752902     Biso  1.000000 C
   C224       1.0     0.817235      0.064757      0.815436     Biso  1.000000 C
   C225       1.0     0.449071      0.145457      0.712234     Biso  1.000000 C
   C226       1.0     0.530658      0.183858      0.692221     Biso  1.000000 C
   C227       1.0     0.309417      0.120845      0.418341     Biso  1.000000 C
   C228       1.0     0.283285      0.165779      0.531699     Biso  1.000000 C
   C229       1.0     0.329042      0.147512      0.499380     Biso  1.000000 C
   C230       1.0     0.201366      0.209137      0.434087     Biso  1.000000 C
   C231       1.0     0.274377      0.136863      0.574086     Biso  1.000000 C
   C232       1.0     0.281646      0.237894      0.587162     Biso  1.000000 C
   C233       1.0     0.303096      0.210531      0.548047     Biso  1.000000 C
   C234       1.0     0.284913      0.237618      0.720003     Biso  1.000000 C
   C235       1.0     0.223484      0.238258      0.582102     Biso  1.000000 C
   C236       1.0     0.362840      0.293800      0.574550     Biso  1.000000 C
   C237       1.0     0.303564      0.284324      0.578989     Biso  1.000000 C
   C238       1.0     0.415904      0.245452      0.463690     Biso  1.000000 C
   C239       1.0     0.367296      0.338906      0.591049     Biso  1.000000 C
   C240       1.0     0.457017      0.272442      0.613546     Biso  1.000000 C
   C241       1.0     0.397680      0.265552      0.606834     Biso  1.000000 C
   C242       1.0     0.512290      0.371822      0.663394     Biso  1.000000 C
   C243       1.0     0.486479      0.278243      0.567230     Biso  1.000000 C
   C244       1.0     0.530794      0.214886      0.649176     Biso  1.000000 C
   C245       1.0     0.568877      0.182772      0.528926     Biso  1.000000 C
   C246       1.0     0.560252      0.253306      0.667808     Biso  1.000000 C
   C247       1.0     0.503412      0.139376      0.695081     Biso  1.000000 C
   C248       1.0     0.564708      0.074726      0.597459     Biso  1.000000 C
   C249       1.0     0.233393      0.026592      0.487604     Biso  1.000000 C
   C250       1.0     0.880994      0.020536      0.931254     Biso  1.000000 C
   C251       1.0     0.931434      0.088876      0.939717     Biso  1.000000 C
   C252       1.0     0.993946      0.321134      0.213598     Biso  1.000000 C
   C253       1.0     0.856833      0.272561      0.195985     Biso  1.000000 C
   C254       1.0     0.908195      0.299309      0.196231     Biso  1.000000 C
   C255       1.0     0.714978      0.290853      0.226740     Biso  1.000000 C
   C256       1.0     0.856479      0.231540      0.221399     Biso  1.000000 C
   C257       1.0     0.827265      0.291095      0.104379     Biso  1.000000 C
   C258       1.0     0.846022      0.258919      0.140767     Biso  1.000000 C
   C259       1.0     0.697913      0.335326      0.066841     Biso  1.000000 C
   C260       1.0     0.845493      0.336446      0.117852     Biso  1.000000 C
   C261       1.0     0.845795      0.243190      0.022190     Biso  1.000000 C
   C262       1.0     0.850221      0.283006      0.054647     Biso  1.000000 C
   C263       1.0     0.749685      0.210007      0.931996     Biso  1.000000 C
   C264       1.0     0.839648      0.204965      0.051871     Biso  1.000000 C
   C265       1.0     0.918685      0.270826      0.957551     Biso  1.000000 C
   C266       1.0     0.891586      0.235437      0.988208     Biso  1.000000 C
   C267       1.0     0.814101      0.316742      0.883547     Biso  1.000000 C
   C268       1.0     0.961640      0.292852      0.982947     Biso  1.000000 C
   C269       1.0     0.977569      0.270471      0.876842     Biso  1.000000 C
   C270       1.0     0.941777      0.246456      0.913058     Biso  1.000000 C
   C271       1.0     0.940995      0.381750      0.845239     Biso  1.000000 C
   C272       1.0     0.998686      0.239701      0.840017     Biso  1.000000 C
   C273       1.0     0.933805      0.277660      0.360168     Biso  1.000000 C
   C274       1.0     0.980167      0.084430      0.907074     Biso  1.000000 C
   C275       1.0     0.973445      0.243770      0.225082     Biso  1.000000 C
   C276       1.0     0.061093      0.249657      0.272171     Biso  1.000000 C
   C277       1.0     0.054579      0.995632      0.854889     Biso  1.000000 C
   C278       1.0     0.969280      0.095704      0.855413     Biso  1.000000 C
   C279       1.0     0.042869      0.123760      0.973983     Biso  1.000000 C
   C280       1.0     0.023968      0.117231      0.922413     Biso  1.000000 C
   C281       1.0     0.949866      0.143336      0.071986     Biso  1.000000 C
   C282       1.0     0.089630      0.151462      0.968191     Biso  1.000000 C
   C283       1.0     0.092293      0.076078      0.041560     Biso  1.000000 C
   C284       1.0     0.058555      0.080411      0.995601     Biso  1.000000 C
   C285       1.0     0.030195      0.987270      0.104723     Biso  1.000000 C
   C286       1.0     0.147064      0.079065      0.028157     Biso  1.000000 C
   C287       1.0     0.109648      0.115787      0.125660     Biso  1.000000 C
   C288       1.0     0.080692      0.110435      0.080307     Biso  1.000000 C
   C289       1.0     0.245466      0.154666      0.134055     Biso  1.000000 C
   C290       1.0     0.124776      0.073176      0.148130     Biso  1.000000 C
   C291       1.0     0.080990      0.153699      0.212448     Biso  1.000000 C
   C292       1.0     0.074030      0.140763      0.159283     Biso  1.000000 C
   C293       1.0     0.032367      0.048511      0.254446     Biso  1.000000 C
   C294       1.0     0.132079      0.174357      0.220798     Biso  1.000000 C
   C295       1.0     0.032525      0.232899      0.226663     Biso  1.000000 C
   C296       1.0     0.036000      0.183927      0.223690     Biso  1.000000 C
   C297       1.0     0.030690      0.262806      0.100274     Biso  1.000000 C
   C298       1.0     0.954341      0.290103      0.231832     Biso  1.000000 C
   C299       1.0     0.390497      0.097112      0.466607     Biso  1.000000 C
   C300       1.0     0.331644      0.108646      0.466814     Biso  1.000000 C
   C301       1.0     0.392144      0.028132      0.419532     Biso  1.000000 C
   C302       1.0     0.875688      0.043792      0.149644     Biso  1.000000 C
   C303       1.0     0.747605      0.078557      0.217691     Biso  1.000000 C
   C304       1.0     0.794287      0.072388      0.184044     Biso  1.000000 C
   C305       1.0     0.794355      0.070323      0.341262     Biso  1.000000 C
   C306       1.0     0.717678      0.035032      0.218556     Biso  1.000000 C
   C307       1.0     0.660815      0.127798      0.208976     Biso  1.000000 C
   C308       1.0     0.714090      0.111768      0.191624     Biso  1.000000 C
   C309       1.0     0.549093      0.059769      0.228940     Biso  1.000000 C
   C310       1.0     0.661041      0.146385      0.260223     Biso  1.000000 C
   C311       1.0     0.595855      0.188106      0.165925     Biso  1.000000 C
   C312       1.0     0.646091      0.163112      0.171783     Biso  1.000000 C
   C313       1.0     0.467919      0.139335      0.166269     Biso  1.000000 C
   C314       1.0     0.606500      0.226802      0.132579     Biso  1.000000 C
   C315       1.0     0.312026      0.247708      0.008654     Biso  1.000000 C
   C316       1.0     0.269392      0.266687      0.041578     Biso  1.000000 C
   C317       1.0     0.238095      0.148804      0.999492     Biso  1.000000 C
   C318       1.0     0.318790      0.280735      0.973027     Biso  1.000000 C
   C319       1.0     0.408114      0.210415      0.028126     Biso  1.000000 C
   C320       1.0     0.361073      0.239500      0.039930     Biso  1.000000 C
   C321       1.0     0.362428      0.106651      0.971231     Biso  1.000000 C
   C322       1.0     0.447330      0.214340      0.070931     Biso  1.000000 C
   C323       1.0     0.913002      0.129731      0.249357     Biso  1.000000 C
   C324       1.0     0.493797      0.209335      0.968444     Biso  1.000000 C
   C325       1.0     0.828549      0.998020      0.209964     Biso  1.000000 C
   C326       1.0     0.894642      0.950391      0.245766     Biso  1.000000 C
   C327       1.0     0.603287      0.655641      0.148931     Biso  1.000000 C
   C328       1.0     0.511346      0.752449      0.164143     Biso  1.000000 C
   C329       1.0     0.574066      0.751071      0.270519     Biso  1.000000 C
   C330       1.0     0.518710      0.739073      0.254397     Biso  1.000000 C
   C331       1.0     0.606531      0.653122      0.332336     Biso  1.000000 C
   C332       1.0     0.566729      0.773543      0.319896     Biso  1.000000 C
   C333       1.0     0.649996      0.808979      0.243517     Biso  1.000000 C
   C334       1.0     0.598306      0.781581      0.233069     Biso  1.000000 C
   C335       1.0     0.653481      0.895841      0.338876     Biso  1.000000 C
   C336       1.0     0.692271      0.785274      0.274069     Biso  1.000000 C
   C337       1.0     0.713796      0.863850      0.187702     Biso  1.000000 C
   C338       1.0     0.675176      0.823597      0.193954     Biso  1.000000 C
   C339       1.0     0.614725      0.952565      0.178520     Biso  1.000000 C
   C340       1.0     0.725544      0.862049      0.134786     Biso  1.000000 C
   C341       1.0     0.817492      0.870868      0.211201     Biso  1.000000 C
   C342       1.0     0.760093      0.853480      0.219410     Biso  1.000000 C
   C343       1.0     0.925022      0.816481      0.275446     Biso  1.000000 C
   C344       1.0     0.841396      0.855720      0.164519     Biso  1.000000 C
   C345       1.0     0.857226      0.954555      0.204696     Biso  1.000000 C
   C346       1.0     0.815038      0.920050      0.210748     Biso  1.000000 C
   C347       1.0     0.870658      0.930721      0.078961     Biso  1.000000 C
   C348       1.0     0.844489      0.042819      0.193247     Biso  1.000000 C
   C349       1.0     0.439079      0.224207      0.982163     Biso  1.000000 C
   C350       1.0     0.628671      0.250557      0.993395     Biso  1.000000 C
   C351       1.0     0.505149      0.163357      0.978727     Biso  1.000000 C
   C352       1.0     0.685122      0.038838      0.679085     Biso  1.000000 C
   C353       1.0     0.842601      0.107943      0.630309     Biso  1.000000 C
   C354       1.0     0.764689      0.081318      0.535596     Biso  1.000000 C
   C355       1.0     0.769613      0.116406      0.573053     Biso  1.000000 C
   C356       1.0     0.700250      0.152548      0.450741     Biso  1.000000 C
   C357       1.0     0.816069      0.057977      0.531580     Biso  1.000000 C
   C358       1.0     0.698702      0.015359      0.507719     Biso  1.000000 C
   C359       1.0     0.722005      0.048257      0.544635     Biso  1.000000 C
   C360       1.0     0.698358      0.903675      0.548033     Biso  1.000000 C
   C361       1.0     0.735385      0.000910      0.471112     Biso  1.000000 C
   C362       1.0     0.612161      0.014656      0.452944     Biso  1.000000 C
   C363       1.0     0.647881      0.036877      0.489087     Biso  1.000000 C
   C364       1.0     0.668137      0.004020      0.331718     Biso  1.000000 C
   C365       1.0     0.612104      0.967149      0.461139     Biso  1.000000 C
   C366       1.0     0.513219      0.026485      0.432018     Biso  1.000000 C
   C367       1.0     0.560456      0.035320      0.462541     Biso  1.000000 C
   C368       1.0     0.474946      0.918033      0.404481     Biso  1.000000 C
   C369       1.0     0.523917      0.035697      0.378111     Biso  1.000000 C
   C370       1.0     0.418264      0.069931      0.427548     Biso  1.000000 C
   C371       1.0     0.472662      0.058915      0.450555     Biso  1.000000 C
   C372       1.0     0.447757      0.156200      0.343037     Biso  1.000000 C
   C373       1.0     0.771441      0.153762      0.647985     Biso  1.000000 C
   C374       1.0     0.785696      0.109713      0.625386     Biso  1.000000 C
   C375       1.0     0.760935      0.134974      0.734625     Biso  1.000000 C
   C376       1.0     0.905015      0.165945      0.760040     Biso  1.000000 C
   C377       1.0     0.485271      0.248179      0.878304     Biso  1.000000 C
   C378       1.0     0.496460      0.209771      0.914566     Biso  1.000000 C
   C379       1.0     0.356945      0.215676      0.829981     Biso  1.000000 C
   C380       1.0     0.510205      0.229745      0.832054     Biso  1.000000 C
   C381       1.0     0.534283      0.327297      0.864360     Biso  1.000000 C
   C382       1.0     0.510375      0.291346      0.893847     Biso  1.000000 C
   C383       1.0     0.436153      0.398680      0.813637     Biso  1.000000 C
   C384       1.0     0.544841      0.361823      0.903830     Biso  1.000000 C
   C385       1.0     0.625861      0.339584      0.815517     Biso  1.000000 C
   C386       1.0     0.586165      0.310812      0.839884     Biso  1.000000 C
   C387       1.0     0.460664      0.572981      0.566977     Biso  1.000000 C
   C388       1.0     0.696527      0.350540      0.929223     Biso  1.000000 C
   C389       1.0     0.703283      0.319453      0.753240     Biso  1.000000 C
   C390       1.0     0.660244      0.306102      0.785963     Biso  1.000000 C
   C391       1.0     0.702573      0.405881      0.655424     Biso  1.000000 C
   C392       1.0     0.750074      0.340202      0.776127     Biso  1.000000 C
   C393       1.0     0.739603      0.236287      0.745199     Biso  1.000000 C
   C394       1.0     0.723878      0.280644      0.725397     Biso  1.000000 C
   C395       1.0     0.674923      0.161879      0.831766     Biso  1.000000 C
   C396       1.0     0.783513      0.240978      0.780959     Biso  1.000000 C
   C397       1.0     0.781667      0.168578      0.699751     Biso  1.000000 C
   C398       1.0     0.754919      0.211742      0.701308     Biso  1.000000 C
   C399       1.0     0.599529      0.375406      0.787840     Biso  1.000000 C
   C400       1.0     0.507075      0.549819      0.595284     Biso  1.000000 C
   C401       1.0     0.474901      0.230756      0.638166     Biso  1.000000 C
   C402       1.0     0.375355      0.537356      0.699902     Biso  1.000000 C
   C403       1.0     0.681361      0.351475      0.713629     Biso  1.000000 C
   C404       1.0     0.694707      0.210703      0.769127     Biso  1.000000 C
   C405       1.0     0.836147      0.174034      0.709995     Biso  1.000000 C
   C406       1.0     0.759583      0.072128      0.650708     Biso  1.000000 C
   C407       1.0     0.755316      0.105273      0.489231     Biso  1.000000 C
   C408       1.0     0.684084      0.974077      0.536798     Biso  1.000000 C
   C409       1.0     0.634252      0.029309      0.405272     Biso  1.000000 C
   C410       1.0     0.493201      0.982774      0.442834     Biso  1.000000 C
   C411       1.0     0.417747      0.095299      0.380374     Biso  1.000000 C
   C412       1.0     0.302684      0.070245      0.490345     Biso  1.000000 C
   C413       1.0     0.237373      0.170081      0.500754     Biso  1.000000 C
   C414       1.0     0.296396      0.223213      0.637400     Biso  1.000000 C
   C415       1.0     0.382420      0.291161      0.523209     Biso  1.000000 C
   C416       1.0     0.464664      0.309196      0.649155     Biso  1.000000 C
   C417       1.0     0.560887      0.199715      0.606406     Biso  1.000000 C
   C418       1.0     0.506482      0.116525      0.646182     Biso  1.000000 C
   C419       1.0     0.473077      0.070891      0.780938     Biso  1.000000 C
   C420       1.0     0.592022      0.984506      0.785478     Biso  1.000000 C
   C421       1.0     0.593363      0.984550      0.931223     Biso  1.000000 C
   C422       1.0     0.716703      0.978554      0.974896     Biso  1.000000 C
   C423       1.0     0.775432      0.092707      0.033935     Biso  1.000000 C
   C424       1.0     0.661056      0.361675      0.852355     Biso  1.000000 C
   C425       1.0     0.850588      0.085830      0.889925     Biso  1.000000 C
   C426       1.0     0.495856      0.345335      0.827307     Biso  1.000000 C
   C427       1.0     0.535684      0.237818      0.992428     Biso  1.000000 C
   C428       1.0     0.230330      0.994948      0.325403     Biso  1.000000 C
   C429       1.0     0.182228      0.858136      0.336641     Biso  1.000000 C
   C430       1.0     0.147494      0.931183      0.197162     Biso  1.000000 C
   C431       1.0     0.056282      0.862064      0.124666     Biso  1.000000 C
   C432       1.0     0.220320      0.802955      0.110233     Biso  1.000000 C
   C433       1.0     0.163581      0.677175      0.023540     Biso  1.000000 C
   C434       1.0     0.254491      0.627349      0.083536     Biso  1.000000 C
   C435       1.0     0.283844      0.650251      0.218851     Biso  1.000000 C
   C436       1.0     0.398201      0.732930      0.144246     Biso  1.000000 C
   C437       1.0     0.536851      0.682010      0.196790     Biso  1.000000 C
   C438       1.0     0.605190      0.710283      0.280113     Biso  1.000000 C
   C439       1.0     0.635884      0.848745      0.274395     Biso  1.000000 C
   C440       1.0     0.688672      0.907582      0.201049     Biso  1.000000 C
   C441       1.0     0.847989      0.852689      0.256196     Biso  1.000000 C
   C442       1.0     0.887085      0.947081      0.159231     Biso  1.000000 C
   C443       1.0     0.876006      0.063349      0.231776     Biso  1.000000 C
   C444       1.0     0.766947      0.093570      0.265262     Biso  1.000000 C
   C445       1.0     0.623067      0.093586      0.202124     Biso  1.000000 C
   C446       1.0     0.551454      0.164257      0.144559     Biso  1.000000 C
   C447       1.0     0.287753      0.209175      0.983945     Biso  1.000000 C
   C448       1.0     0.386710      0.165035      0.024215     Biso  1.000000 C
   C449       1.0     0.426466      0.251436      0.871107     Biso  1.000000 C
   C450       1.0     0.343781      0.912683      0.255693     Biso  1.000000 C
   C451       1.0     0.004215      0.039446      0.907214     Biso  1.000000 C
   C452       1.0     0.083094      0.030601      0.061180     Biso  1.000000 C
   C453       1.0     0.862928      0.858111      0.876058     Biso  1.000000 C
   C454       1.0     0.908678      0.826823      0.877963     Biso  1.000000 C
   C455       1.0     0.737847      0.840641      0.938961     Biso  1.000000 C
   C456       1.0     0.875492      0.898112      0.901005     Biso  1.000000 C
   C457       1.0     0.813044      0.894981      0.798424     Biso  1.000000 C
   C458       1.0     0.852007      0.862102      0.821238     Biso  1.000000 C
   C459       1.0     0.908372      0.981240      0.792239     Biso  1.000000 C
   C460       1.0     0.757706      0.890224      0.818016     Biso  1.000000 C
   C461       1.0     0.778374      0.906129      0.705332     Biso  1.000000 C
   C462       1.0     0.816114      0.886400      0.744050     Biso  1.000000 C
   C463       1.0     0.684341      0.819622      0.735996     Biso  1.000000 C
   C464       1.0     0.759855      0.952889      0.718517     Biso  1.000000 C
   C465       1.0     0.854749      0.909718      0.632723     Biso  1.000000 C
   C466       1.0     0.797399      0.903349      0.651088     Biso  1.000000 C
   C467       1.0     0.872539      0.799171      0.664333     Biso  1.000000 C
   C468       1.0     0.876232      0.948828      0.655670     Biso  1.000000 C
   C469       1.0     0.905978      0.922165      0.548525     Biso  1.000000 C
   C470       1.0     0.853325      0.918836      0.579762     Biso  1.000000 C
   C471       1.0     0.941135      0.026720      0.590729     Biso  1.000000 C
   C472       1.0     0.938760      0.880755      0.547210     Biso  1.000000 C
   C473       1.0     0.916729      0.942629      0.452449     Biso  1.000000 C
   C474       1.0     0.902232      0.805013      0.970669     Biso  1.000000 C
   C475       1.0     0.005053      0.149605      0.006040     Biso  1.000000 C
   C476       1.0     0.991265      0.905131      0.004441     Biso  1.000000 C
   C477       1.0     0.938907      0.816848      0.929666     Biso  1.000000 C
   C478       1.0     0.156738      0.144384      0.115772     Biso  1.000000 C
   C479       1.0     0.079189      0.113098      0.243056     Biso  1.000000 C
   C480       1.0     0.056667      0.250331      0.180442     Biso  1.000000 C
   C481       1.0     0.938971      0.300530      0.282794     Biso  1.000000 C
   C482       1.0     0.807387      0.297634      0.214118     Biso  1.000000 C
   C483       1.0     0.768586      0.291233      0.096187     Biso  1.000000 C
   C484       1.0     0.795586      0.244313      0.993788     Biso  1.000000 C
   C485       1.0     0.880892      0.306149      0.939122     Biso  1.000000 C
   C486       1.0     0.955859      0.306626      0.848328     Biso  1.000000 C
   C487       1.0     0.032208      0.598584      0.847351     Biso  1.000000 C
   C488       1.0     0.086756      0.580825      0.855912     Biso  1.000000 C
   C489       1.0     0.070798      0.647684      0.729846     Biso  1.000000 C
   C490       1.0     0.991903      0.565149      0.856727     Biso  1.000000 C
   C491       1.0     0.041460      0.684717      0.877401     Biso  1.000000 C
   C492       1.0     0.019422      0.637496      0.880620     Biso  1.000000 C
   C493       1.0     0.026189      0.755320      0.767595     Biso  1.000000 C
   C494       1.0     0.100978      0.686568      0.877429     Biso  1.000000 C
   C495       1.0     0.015974      0.755144      0.941512     Biso  1.000000 C
   C496       1.0     0.020649      0.706335      0.925368     Biso  1.000000 C
   C497       1.0     0.957618      0.726457      0.058555     Biso  1.000000 C
   C498       1.0     0.065515      0.778855      0.930432     Biso  1.000000 C
   C499       1.0     0.967108      0.775313      0.914056     Biso  1.000000 C
   C500       1.0     0.883547      0.929667      0.496762     Biso  1.000000 C
   C501       1.0     0.336448      0.056756      0.205663     Biso  1.000000 C
   C502       1.0     0.448414      0.905843      0.093126     Biso  1.000000 C
   C503       1.0     0.511263      0.774403      0.469489     Biso  1.000000 C
   C504       1.0     0.563081      0.831510      0.619777     Biso  1.000000 C
   C505       1.0     0.657133      0.717982      0.564781     Biso  1.000000 C
   C506       1.0     0.766399      0.801176      0.477272     Biso  1.000000 C
   C507       1.0     0.842147      0.732280      0.458894     Biso  1.000000 C
   C508       1.0     0.912685      0.687676      0.600305     Biso  1.000000 C
   C509       1.0     0.975080      0.602957      0.521824     Biso  1.000000 C
   C510       1.0     0.073090      0.685094      0.439598     Biso  1.000000 C
   C511       1.0     0.068619      0.710546      0.328625     Biso  1.000000 C
   C512       1.0     0.079499      0.678746      0.217790     Biso  1.000000 C
   C513       1.0     0.097700      0.545502      0.204538     Biso  1.000000 C
   C514       1.0     0.040682      0.554459      0.063028     Biso  1.000000 C
   C515       1.0     0.979196      0.430769      0.091587     Biso  1.000000 C
   C516       1.0     0.893309      0.514433      0.207325     Biso  1.000000 C
   C517       1.0     0.940531      0.535496      0.319267     Biso  1.000000 C
   C518       1.0     0.553391      0.734561      0.901353     Biso  1.000000 C
   C519       1.0     0.615771      0.729510      0.809592     Biso  1.000000 C
   C520       1.0     0.764428      0.694996      0.766368     Biso  1.000000 C
   C521       1.0     0.720423      0.567775      0.724712     Biso  1.000000 C
   C522       1.0     0.844383      0.500976      0.818012     Biso  1.000000 C
   C523       1.0     0.899611      0.518747      0.667105     Biso  1.000000 C
   C524       1.0     0.400138      0.812336      0.438494     Biso  1.000000 C
   C525       1.0     0.896854      0.381518      0.669358     Biso  1.000000 C
   C526       1.0     0.318533      0.900381      0.494847     Biso  1.000000 C
   C527       1.0     0.102243      0.825254      0.594542     Biso  1.000000 C
   C528       1.0     0.427724      0.634409      0.617370     Biso  1.000000 C
   C529       1.0     0.018421      0.710138      0.833555     Biso  1.000000 C
   C530       1.0     0.007353      0.755611      0.995057     Biso  1.000000 C
   C531       1.0     0.975575      0.853919      0.942819     Biso  1.000000 C
   C532       1.0     0.814407      0.835407      0.896408     Biso  1.000000 C
   C533       1.0     0.832386      0.940777      0.805108     Biso  1.000000 C
   C534       1.0     0.727583      0.881373      0.703097     Biso  1.000000 C
   C535       1.0     0.884465      0.870555      0.648132     Biso  1.000000 C
   C536       1.0     0.940217      0.958580      0.564433     Biso  1.000000 C
   C537       1.0     0.884925      0.924763      0.411042     Biso  1.000000 C
   C538       1.0     0.000937      0.017194      0.442658     Biso  1.000000 C
   C539       1.0     0.918353      0.141983      0.405820     Biso  1.000000 C
   C540       1.0     0.074997      0.152294      0.423022     Biso  1.000000 C
   C541       1.0     0.980435      0.179660      0.557141     Biso  1.000000 C
   C542       1.0     0.075073      0.247975      0.650339     Biso  1.000000 C
   C543       1.0     0.062086      0.136762      0.745305     Biso  1.000000 C
   C544       1.0     0.191023      0.180554      0.823206     Biso  1.000000 C
   C545       1.0     0.220093      0.041916      0.837406     Biso  1.000000 C
   C546       1.0     0.298183      0.012491      0.701652     Biso  1.000000 C
   C547       1.0     0.132789      0.999404      0.625017     Biso  1.000000 C
   C548       1.0     0.105408      0.899534      0.727984     Biso  1.000000 C
   C549       1.0     0.165435      0.836675      0.493711     Biso  1.000000 C
   C550       1.0     0.467043      0.998189      0.132991     Biso  1.000000 C
   C551       1.0     0.889589      0.367028      0.530940     Biso  1.000000 C
   C552       1.0     0.756936      0.306927      0.388320     Biso  1.000000 C
   C553       1.0     0.232989      0.372779      0.787014     Biso  1.000000 C
   C554       1.0     0.100340      0.410795      0.796506     Biso  1.000000 C
   C555       1.0     0.117835      0.421281      0.958865     Biso  1.000000 C
   C556       1.0     0.129545      0.335715      0.037059     Biso  1.000000 C
   C557       1.0     0.836846      0.681398      0.223683     Biso  1.000000 C
   C558       1.0     0.801587      0.718312      0.083196     Biso  1.000000 C
   C559       1.0     0.799664      0.656184      0.987906     Biso  1.000000 C
   C560       1.0     0.827613      0.525725      0.993486     Biso  1.000000 C
   C561       1.0     0.739138      0.452418      0.011472     Biso  1.000000 C
   C562       1.0     0.627225      0.526576      0.919226     Biso  1.000000 C
   C563       1.0     0.517207      0.505240      0.881660     Biso  1.000000 C
   C564       1.0     0.439793      0.576187      0.008362     Biso  1.000000 C
   C565       1.0     0.324488      0.499965      0.935735     Biso  1.000000 C
   C566       1.0     0.278912      0.619784      0.890199     Biso  1.000000 C
   C567       1.0     0.237464      0.597034      0.737454     Biso  1.000000 C
   C568       1.0     0.245330      0.731960      0.760493     Biso  1.000000 C
   C569       1.0     0.399081      0.716351      0.742262     Biso  1.000000 C
   C570       1.0     0.390467      0.850352      0.700925     Biso  1.000000 C
   C571       1.0     0.437837      0.868336      0.847278     Biso  1.000000 C
   C572       1.0     0.300471      0.869808      0.882387     Biso  1.000000 C
   C573       1.0     0.318533      0.958452      0.998421     Biso  1.000000 C
   C574       1.0     0.265102      0.440003      0.658183     Biso  1.000000 C
   C575       1.0     0.775020      0.267861      0.529626     Biso  1.000000 C
   C576       1.0     0.125097      0.444009      0.635056     Biso  1.000000 C
   C577       1.0     0.206540      0.482696      0.403599     Biso  1.000000 C
   C578       1.0     0.611413      0.242067      0.399491     Biso  1.000000 C
   C579       1.0     0.565396      0.327058      0.292746     Biso  1.000000 C
   C580       1.0     0.418755      0.330315      0.358783     Biso  1.000000 C
   C581       1.0     0.391849      0.460086      0.308728     Biso  1.000000 C
   C582       1.0     0.469301      0.506404      0.399930     Biso  1.000000 C
   C583       1.0     0.435639      0.610309      0.384324     Biso  1.000000 C
   C584       1.0     0.274237      0.655010      0.415322     Biso  1.000000 C
   C585       1.0     0.331236      0.674646      0.564697     Biso  1.000000 C
   C586       1.0     0.387597      0.563282      0.623242     Biso  1.000000 C
   C587       1.0     0.530967      0.578823      0.633566     Biso  1.000000 C
   C588       1.0     0.569512      0.456419      0.565417     Biso  1.000000 C
   C589       1.0     0.719989      0.510674      0.522482     Biso  1.000000 C
   C590       1.0     0.751653      0.510517      0.411534     Biso  1.000000 C
   C591       1.0     0.689971      0.535449      0.305035     Biso  1.000000 C
   C592       1.0     0.670293      0.431832      0.209482     Biso  1.000000 C
   C593       1.0     0.528872      0.499849      0.174823     Biso  1.000000 C
   C594       1.0     0.460785      0.388314      0.117363     Biso  1.000000 C
   C595       1.0     0.328246      0.411679      0.121890     Biso  1.000000 C
   C596       1.0     0.256421      0.325624      0.209901     Biso  1.000000 C
   C597       1.0     0.147158      0.370558      0.264960     Biso  1.000000 C
   C598       1.0     0.161685      0.366601      0.422442     Biso  1.000000 C
   C599       1.0     0.128333      0.504948      0.538734     Biso  1.000000 C
   C600       1.0     0.801847      0.928415      0.375707     Biso  1.000000 C
   C601       1.0     0.548270      0.763556      0.010555     Biso  1.000000 C
   C602       1.0     0.949824      0.021929      0.421001     Biso  1.000000 C
   C603       1.0     0.594205      0.660529      0.903995     Biso  1.000000 C
   C604       1.0     0.665233      0.724948      0.837519     Biso  1.000000 C
   C605       1.0     0.651725      0.724866      0.893274     Biso  1.000000 C
   C606       1.0     0.561238      0.778441      0.775871     Biso  1.000000 C
   C607       1.0     0.700137      0.763772      0.833179     Biso  1.000000 C
   C608       1.0     0.718414      0.668082      0.778331     Biso  1.000000 C
   C609       1.0     0.691969      0.680949      0.826583     Biso  1.000000 C
   C610       1.0     0.842899      0.722290      0.797859     Biso  1.000000 C
   C611       1.0     0.680806      0.665810      0.738182     Biso  1.000000 C
   C612       1.0     0.761279      0.588710      0.756729     Biso  1.000000 C
   C613       1.0     0.738360      0.622577      0.790454     Biso  1.000000 C
   C614       1.0     0.640914      0.529895      0.722670     Biso  1.000000 C
   C615       1.0     0.797278      0.609866      0.721570     Biso  1.000000 C
   C616       1.0     0.837642      0.530463      0.774873     Biso  1.000000 C
   C617       1.0     0.788336      0.553678      0.788841     Biso  1.000000 C
   C618       1.0     0.804585      0.441502      0.857043     Biso  1.000000 C
   C619       1.0     0.883301      0.561748      0.773080     Biso  1.000000 C
   C620       1.0     0.871878      0.484036      0.696399     Biso  1.000000 C
   C621       1.0     0.828334      0.504810      0.725977     Biso  1.000000 C
   C622       1.0     0.964975      0.564343      0.667467     Biso  1.000000 C
   C623       1.0     0.905717      0.461586      0.728950     Biso  1.000000 C
   C624       1.0     0.464082      0.736598      0.898362     Biso  1.000000 C
   C625       1.0     0.876191      0.414591      0.632814     Biso  1.000000 C
   C626       1.0     0.605877      0.708193      0.971445     Biso  1.000000 C
   C627       1.0     0.638444      0.784308      0.981450     Biso  1.000000 C
   C628       1.0     0.176198      0.513162      0.209433     Biso  1.000000 C
   C629       1.0     0.102783      0.602427      0.148390     Biso  1.000000 C
   C630       1.0     0.028609      0.529826      0.109070     Biso  1.000000 C
   C631       1.0     0.022363      0.560393      0.151809     Biso  1.000000 C
   C632       1.0     0.008051      0.608721      0.012984     Biso  1.000000 C
   C633       1.0     0.072033      0.497468      0.112651     Biso  1.000000 C
   C634       1.0     0.954269      0.467017      0.119616     Biso  1.000000 C
   C635       1.0     0.973502      0.511399      0.099448     Biso  1.000000 C
   C636       1.0     0.981352      0.395740      0.020275     Biso  1.000000 C
   C637       1.0     0.896129      0.459914      0.109421     Biso  1.000000 C
   C638       1.0     0.924504      0.474196      0.213791     Biso  1.000000 C
   C639       1.0     0.963098      0.460344      0.171945     Biso  1.000000 C
   C640       1.0     0.808497      0.541900      0.196009     Biso  1.000000 C
   C641       1.0     0.893278      0.433473      0.226659     Biso  1.000000 C
   C642       1.0     0.941086      0.488529      0.307909     Biso  1.000000 C
   C643       1.0     0.962411      0.478762      0.256115     Biso  1.000000 C
   C644       1.0     0.887674      0.592607      0.339530     Biso  1.000000 C
   C645       1.0     0.975235      0.467695      0.345865     Biso  1.000000 C
   C646       1.0     0.603215      0.748800      0.001394     Biso  1.000000 C
   C647       1.0     0.624256      0.736114      0.048560     Biso  1.000000 C
   C648       1.0     0.493084      0.822110      0.003348     Biso  1.000000 C
   C649       1.0     0.600073      0.707559      0.916674     Biso  1.000000 C
   C650       1.0     0.038783      0.608589      0.216992     Biso  1.000000 C
   C651       1.0     0.847348      0.452327      0.661613     Biso  1.000000 C
   C652       1.0     0.921113      0.435375      0.604452     Biso  1.000000 C
   C653       1.0     0.342999      0.510828      0.263417     Biso  1.000000 C
   C654       1.0     0.344827      0.406656      0.355424     Biso  1.000000 C
   C655       1.0     0.410587      0.509667      0.407570     Biso  1.000000 C
   C656       1.0     0.383300      0.466152      0.399206     Biso  1.000000 C
   C657       1.0     0.534804      0.527106      0.347507     Biso  1.000000 C
   C658       1.0     0.401460      0.516742      0.458844     Biso  1.000000 C
   C659       1.0     0.380955      0.593645      0.383575     Biso  1.000000 C
   C660       1.0     0.383398      0.545044      0.375289     Biso  1.000000 C
   C661       1.0     0.500425      0.634707      0.434365     Biso  1.000000 C
   C662       1.0     0.354026      0.616026      0.341237     Biso  1.000000 C
   C663       1.0     0.319719      0.641443      0.446253     Biso  1.000000 C
   C664       1.0     0.348275      0.598988      0.428806     Biso  1.000000 C
   C665       1.0     0.199943      0.617118      0.383298     Biso  1.000000 C
   C666       1.0     0.358056      0.677416      0.451250     Biso  1.000000 C
   C667       1.0     0.327649      0.627955      0.550306     Biso  1.000000 C
   C668       1.0     0.298802      0.632012      0.498224     Biso  1.000000 C
   C669       1.0     0.277609      0.733011      0.584021     Biso  1.000000 C
   C670       1.0     0.290804      0.606804      0.583961     Biso  1.000000 C
   C671       1.0     0.413457      0.595587      0.590410     Biso  1.000000 C
   C672       1.0     0.971187      0.922799      0.451127     Biso  1.000000 C
   C673       1.0     0.377443      0.604172      0.548374     Biso  1.000000 C
   C674       1.0     0.440662      0.409982      0.363260     Biso  1.000000 C
   C675       1.0     0.873985      0.326798      0.722962     Biso  1.000000 C
   C676       1.0     0.453905      0.367373      0.289365     Biso  1.000000 C
   C677       1.0     0.508906      0.354999      0.361401     Biso  1.000000 C
   C678       1.0     0.848397      0.353913      0.566868     Biso  1.000000 C
   C679       1.0     0.835226      0.393613      0.600390     Biso  1.000000 C
   C680       1.0     0.962724      0.340773      0.490746     Biso  1.000000 C
   C681       1.0     0.862955      0.315518      0.596686     Biso  1.000000 C
   C682       1.0     0.787905      0.308022      0.503129     Biso  1.000000 C
   C683       1.0     0.795684      0.346828      0.539012     Biso  1.000000 C
   C684       1.0     0.703071      0.243808      0.577246     Biso  1.000000 C
   C685       1.0     0.833281      0.295748      0.471313     Biso  1.000000 C
   C686       1.0     0.721726      0.293592      0.429733     Biso  1.000000 C
   C687       1.0     0.737888      0.318584      0.474616     Biso  1.000000 C
   C688       1.0     0.786629      0.370461      0.349162     Biso  1.000000 C
   C689       1.0     0.723958      0.245358      0.434801     Biso  1.000000 C
   C690       1.0     0.631488      0.284346      0.382887     Biso  1.000000 C
   C691       1.0     0.666162      0.306871      0.420892     Biso  1.000000 C
   C692       1.0     0.583216      0.176142      0.377886     Biso  1.000000 C
   C693       1.0     0.660040      0.278664      0.332730     Biso  1.000000 C
   C694       1.0     0.542564      0.317601      0.340464     Biso  1.000000 C
   C695       1.0     0.585550      0.316494      0.380378     Biso  1.000000 C
   C696       1.0     0.567042      0.307702      0.211545     Biso  1.000000 C
   C697       1.0     0.510964      0.275583      0.344832     Biso  1.000000 C
   C698       1.0     0.455185      0.365117      0.340707     Biso  1.000000 C
   C699       1.0     0.353622      0.280157      0.340415     Biso  1.000000 C
   C700       1.0     0.067611      0.579535      0.179458     Biso  1.000000 C
   C701       1.0     0.390086      0.436385      0.355571     Biso  1.000000 C
   C702       1.0     0.050599      0.728616      0.161550     Biso  1.000000 C
   C703       1.0     0.138212      0.113218      0.825919     Biso  1.000000 C
   C704       1.0     0.244061      0.062922      0.793996     Biso  1.000000 C
   C705       1.0     0.234205      0.113676      0.796899     Biso  1.000000 C
   C706       1.0     0.236131      0.041417      0.919781     Biso  1.000000 C
   C707       1.0     0.300539      0.057456      0.796119     Biso  1.000000 C
   C708       1.0     0.241478      0.007753      0.721272     Biso  1.000000 C
   C709       1.0     0.222559      0.048103      0.747262     Biso  1.000000 C
   C710       1.0     0.355990      0.052540      0.655519     Biso  1.000000 C
   C711       1.0     0.246546      0.969989      0.753812     Biso  1.000000 C
   C712       1.0     0.154680      0.982897      0.673135     Biso  1.000000 C
   C713       1.0     0.207888      0.002604      0.676031     Biso  1.000000 C
   C714       1.0     0.087459      0.050509      0.583427     Biso  1.000000 C
   C715       1.0     0.118387      0.998789      0.709506     Biso  1.000000 C
   C716       1.0     0.121434      0.903299      0.674787     Biso  1.000000 C
   C717       1.0     0.167361      0.934747      0.674432     Biso  1.000000 C
   C718       1.0     0.133643      0.879120      0.806050     Biso  1.000000 C
   C719       1.0     0.071780      0.913248      0.645156     Biso  1.000000 C
   C720       1.0     0.153581      0.841074      0.610988     Biso  1.000000 C
   C721       1.0     0.142517      0.858218      0.663011     Biso  1.000000 C
   C722       1.0     0.038390      0.769583      0.615388     Biso  1.000000 C
   C723       1.0     0.190060      0.802421      0.617050     Biso  1.000000 C
   C724       1.0     0.169740      0.229042      0.883058     Biso  1.000000 C
   C725       1.0     0.157977      0.143684      0.745639     Biso  1.000000 C
   C726       1.0     0.180514      0.137120      0.799833     Biso  1.000000 C
   C727       1.0     0.102100      0.207387      0.752108     Biso  1.000000 C
   C728       1.0     0.086235      0.999834      0.429719     Biso  1.000000 C
   C729       1.0     0.916397      0.993753      0.452038     Biso  1.000000 C
   C730       1.0     0.114527      0.622028      0.276451     Biso  1.000000 C
   C731       1.0     0.945123      0.008164      0.369695     Biso  1.000000 C
   C732       1.0     0.959922      0.109832      0.415557     Biso  1.000000 C
   C733       1.0     0.930558      0.069307      0.427344     Biso  1.000000 C
   C734       1.0     0.852079      0.183456      0.436407     Biso  1.000000 C
   C735       1.0     0.990287      0.105675      0.369090     Biso  1.000000 C
   C736       1.0     0.030701      0.161298      0.457695     Biso  1.000000 C
   C737       1.0     0.994090      0.121168      0.458725     Biso  1.000000 C
   C738       1.0     0.200498      0.864951      0.524520     Biso  1.000000 C
   C739       1.0     0.139541      0.099284      0.403272     Biso  1.000000 C
   C740       1.0     0.036600      0.193355      0.551248     Biso  1.000000 C
   C741       1.0     0.895223      0.202363      0.547555     Biso  1.000000 C
   C742       1.0     0.040882      0.240896      0.543524     Biso  1.000000 C
   C743       1.0     0.064273      0.199646      0.647264     Biso  1.000000 C
   C744       1.0     0.069733      0.180893      0.596173     Biso  1.000000 C
   C745       1.0     0.041430      0.316767      0.642819     Biso  1.000000 C
   C746       1.0     0.010094      0.188577      0.662839     Biso  1.000000 C
   C747       1.0     0.106121      0.163523      0.730240     Biso  1.000000 C
   C748       1.0     0.105898      0.171640      0.676681     Biso  1.000000 C
   C749       1.0     0.014954      0.074170      0.732939     Biso  1.000000 C
   C750       1.0     0.004917      0.202247      0.437707     Biso  1.000000 C
   C751       1.0     0.180790      0.872381      0.578802     Biso  1.000000 C
   C752       1.0     0.058499      0.168120      0.507473     Biso  1.000000 C
   C753       1.0     0.201563      0.909477      0.501594     Biso  1.000000 C
   C754       1.0     0.756732      0.725572      0.503418     Biso  1.000000 C
   C755       1.0     0.902696      0.788359      0.443256     Biso  1.000000 C
   C756       1.0     0.799498      0.662644      0.474728     Biso  1.000000 C
   C757       1.0     0.887493      0.670827      0.557584     Biso  1.000000 C
   C758       1.0     0.839549      0.700007      0.545429     Biso  1.000000 C
   C759       1.0     0.926774      0.681338      0.681938     Biso  1.000000 C
   C760       1.0     0.865572      0.624855      0.567005     Biso  1.000000 C
   C761       1.0     0.975099      0.648666      0.506819     Biso  1.000000 C
   C762       1.0     0.922420      0.671856      0.515608     Biso  1.000000 C
   C763       1.0     0.954503      0.529820      0.502950     Biso  1.000000 C
   C764       1.0     0.015895      0.674354      0.534802     Biso  1.000000 C
   C765       1.0     0.040456      0.645055      0.428500     Biso  1.000000 C
   C766       1.0     0.152924      0.711039      0.463525     Biso  1.000000 C
   C767       1.0     0.063019      0.602954      0.448393     Biso  1.000000 C
   C768       1.0     0.031056      0.675091      0.336683     Biso  1.000000 C
   C769       1.0     0.047517      0.639118      0.374028     Biso  1.000000 C
   C770       1.0     0.073071      0.781836      0.305478     Biso  1.000000 C
   C771       1.0     0.024705      0.657047      0.286642     Biso  1.000000 C
   C772       1.0     0.084850      0.825210      0.454403     Biso  1.000000 C
   C773       1.0     0.980907      0.697343      0.349974     Biso  1.000000 C
   C774       1.0     0.067044      0.641089      0.250471     Biso  1.000000 C
   C775       1.0     0.811703      0.706734      0.495353     Biso  1.000000 C
   C776       1.0     0.778004      0.782796      0.563207     Biso  1.000000 C
   C777       1.0     0.984351      0.650884      0.450997     Biso  1.000000 C
   C778       1.0     0.688219      0.783169      0.522092     Biso  1.000000 C
   C779       1.0     0.255552      0.847390      0.528663     Biso  1.000000 C
   C780       1.0     0.399806      0.818222      0.492267     Biso  1.000000 C
   C781       1.0     0.343056      0.820576      0.511493     Biso  1.000000 C
   C782       1.0     0.369615      0.767898      0.374695     Biso  1.000000 C
   C783       1.0     0.339899      0.960864      0.539434     Biso  1.000000 C
   C784       1.0     0.429246      0.858243      0.508277     Biso  1.000000 C
   C785       1.0     0.282254      0.838504      0.443702     Biso  1.000000 C
   C786       1.0     0.483813      0.767167      0.518514     Biso  1.000000 C
   C787       1.0     0.424231      0.776461      0.517952     Biso  1.000000 C
   C788       1.0     0.485686      0.718563      0.526755     Biso  1.000000 C
   C789       1.0     0.300294      0.852978      0.492243     Biso  1.000000 C
   C790       1.0     0.569927      0.815025      0.425239     Biso  1.000000 C
   C791       1.0     0.503861      0.795625      0.564040     Biso  1.000000 C
   C792       1.0     0.566646      0.906163      0.604687     Biso  1.000000 C
   C793       1.0     0.553942      0.749374      0.623885     Biso  1.000000 C
   C794       1.0     0.655637      0.767814      0.563555     Biso  1.000000 C
   C795       1.0     0.600655      0.782247      0.551213     Biso  1.000000 C
   C796       1.0     0.644172      0.652993      0.526365     Biso  1.000000 C
   C797       1.0     0.673518      0.783872      0.610089     Biso  1.000000 C
   C798       1.0     0.746230      0.772401      0.517878     Biso  1.000000 C
   C799       1.0     0.556865      0.788503      0.589584     Biso  1.000000 C
   C800       1.0     0.771199      0.808973      0.394410     Biso  1.000000 C
   H1         1.0     0.141460      0.249170      0.863274     Biso  1.000000 H
   H2         1.0     0.364165      0.036133      0.624388     Biso  1.000000 H
   H3         1.0     0.362908      0.085033      0.645469     Biso  1.000000 H
   H4         1.0     0.231078      0.061209      0.950104     Biso  1.000000 H
   H5         1.0     0.273339      0.030297      0.920793     Biso  1.000000 H
   H6         1.0     0.212337      0.012849      0.926275     Biso  1.000000 H
   H7         1.0     0.074095      0.329324      0.661254     Biso  1.000000 H
   H8         1.0     0.158317      0.226900      0.922522     Biso  1.000000 H
   H9         1.0     0.006462      0.047974      0.709696     Biso  1.000000 H
   H10        1.0     0.980684      0.091766      0.741049     Biso  1.000000 H
   H11        1.0     0.023999      0.058717      0.765982     Biso  1.000000 H
   H12        1.0     0.005540      0.329584      0.655916     Biso  1.000000 H
   H13        1.0     0.044047      0.322267      0.606652     Biso  1.000000 H
   H14        1.0     0.884570      0.210954      0.583564     Biso  1.000000 H
   H15        1.0     0.204403      0.246180      0.879653     Biso  1.000000 H
   H16        1.0     0.384573      0.046095      0.683523     Biso  1.000000 H
   H17        1.0     0.008131      0.790178      0.625312     Biso  1.000000 H
   H18        1.0     0.054341      0.074026      0.588867     Biso  1.000000 H
   H19        1.0     0.372779      0.794875      0.353484     Biso  1.000000 H
   H20        1.0     0.334356      0.751131      0.366391     Biso  1.000000 H
   H21        1.0     0.394961      0.743491      0.367126     Biso  1.000000 H
   H22        1.0     0.884597      0.170466      0.543173     Biso  1.000000 H
   H23        1.0     0.596463      0.839301      0.438441     Biso  1.000000 H
   H24        1.0     0.301087      0.974927      0.540969     Biso  1.000000 H
   H25        1.0     0.364853      0.975407      0.513345     Biso  1.000000 H
   H26        1.0     0.358395      0.970873      0.571244     Biso  1.000000 H
   H27        1.0     0.104169      0.817802      0.420843     Biso  1.000000 H
   H28        1.0     0.051452      0.843104      0.446021     Biso  1.000000 H
   H29        1.0     0.074427      0.799513      0.477227     Biso  1.000000 H
   H30        1.0     0.039247      0.742901      0.639769     Biso  1.000000 H
   H31        1.0     0.030803      0.760236      0.578567     Biso  1.000000 H
   H32        1.0     0.167165      0.863834      0.821150     Biso  1.000000 H
   H33        1.0     0.101695      0.858600      0.806781     Biso  1.000000 H
   H34        1.0     0.120090      0.905093      0.826875     Biso  1.000000 H
   H35        1.0     0.120093      0.069890      0.574645     Biso  1.000000 H
   H36        1.0     0.076228      0.027163      0.557289     Biso  1.000000 H
   H37        1.0     0.878181      0.224192      0.521947     Biso  1.000000 H
   H38        1.0     0.912349      0.993373      0.828871     Biso  1.000000 H
   H39        1.0     0.177319      0.109995      0.410371     Biso  1.000000 H
   H40        1.0     0.741861      0.806673      0.941350     Biso  1.000000 H
   H41        1.0     0.710110      0.850775      0.914492     Biso  1.000000 H
   H42        1.0     0.723478      0.852786      0.972155     Biso  1.000000 H
   H43        1.0     0.995955      0.901714      0.043251     Biso  1.000000 H
   H44        1.0     0.972165      0.935682      0.995229     Biso  1.000000 H
   H45        1.0     0.029814      0.907130      0.990763     Biso  1.000000 H
   H46        1.0     0.943231      0.753512      0.077974     Biso  1.000000 H
   H47        1.0     0.945531      0.972684      0.778886     Biso  1.000000 H
   H48        1.0     0.990525      0.717750      0.080943     Biso  1.000000 H
   H49        1.0     0.054375      0.773737      0.749279     Biso  1.000000 H
   H50        1.0     0.000370      0.777299      0.782769     Biso  1.000000 H
   H51        1.0     0.999803      0.738207      0.744412     Biso  1.000000 H
   H52        1.0     0.593393      0.786294      0.419177     Biso  1.000000 H
   H53        1.0     0.106642      0.664401      0.725113     Biso  1.000000 H
   H54        1.0     0.045316      0.675270      0.727225     Biso  1.000000 H
   H55        1.0     0.070115      0.624591      0.703466     Biso  1.000000 H
   H56        1.0     0.932144      0.701717      0.064803     Biso  1.000000 H
   H57        1.0     0.899041      0.008117      0.770469     Biso  1.000000 H
   H58        1.0     0.655894      0.827243      0.708607     Biso  1.000000 H
   H59        1.0     0.687883      0.786081      0.728616     Biso  1.000000 H
   H60        1.0     0.130682      0.103930      0.365819     Biso  1.000000 H
   H61        1.0     0.869888      0.211073      0.420382     Biso  1.000000 H
   H62        1.0     0.838186      0.185662      0.472542     Biso  1.000000 H
   H63        1.0     0.818905      0.173359      0.414788     Biso  1.000000 H
   H64        1.0     0.082784      0.972201      0.452800     Biso  1.000000 H
   H65        1.0     0.103912      0.027225      0.450853     Biso  1.000000 H
   H66        1.0     0.112696      0.988180      0.401715     Biso  1.000000 H
   H67        1.0     0.763265      0.942196      0.382430     Biso  1.000000 H
   H68        1.0     0.801741      0.895837      0.359922     Biso  1.000000 H
   H69        1.0     0.814316      0.949080      0.347879     Biso  1.000000 H
   H70        1.0     0.952944      0.021556      0.627723     Biso  1.000000 H
   H71        1.0     0.917163      0.053854      0.591822     Biso  1.000000 H
   H72        1.0     0.974612      0.034213      0.570924     Biso  1.000000 H
   H73        1.0     0.853711      0.772031      0.653235     Biso  1.000000 H
   H74        1.0     0.861954      0.805976      0.701487     Biso  1.000000 H
   H75        1.0     0.911918      0.786464      0.657842     Biso  1.000000 H
   H76        1.0     0.668348      0.826305      0.769672     Biso  1.000000 H
   H77        1.0     0.143892      0.066016      0.408607     Biso  1.000000 H
   H78        1.0     0.552866      0.827598      0.393960     Biso  1.000000 H
   H79        1.0     0.465744      0.746716      0.860930     Biso  1.000000 H
   H80        1.0     0.524842      0.909188      0.602199     Biso  1.000000 H
   H81        1.0     0.837563      0.422206      0.860828     Biso  1.000000 H
   H82        1.0     0.770670      0.422074      0.852001     Biso  1.000000 H
   H83        1.0     0.798830      0.460507      0.887043     Biso  1.000000 H
   H84        1.0     0.659111      0.504462      0.702731     Biso  1.000000 H
   H85        1.0     0.620605      0.547861      0.698550     Biso  1.000000 H
   H86        1.0     0.613887      0.517351      0.748457     Biso  1.000000 H
   H87        1.0     0.838870      0.754457      0.785011     Biso  1.000000 H
   H88        1.0     0.000359      0.572927      0.686858     Biso  1.000000 H
   H89        1.0     0.873343      0.704506      0.780119     Biso  1.000000 H
   H90        1.0     0.528887      0.771372      0.800343     Biso  1.000000 H
   H91        1.0     0.552077      0.760867      0.743604     Biso  1.000000 H
   H92        1.0     0.559882      0.812327      0.767563     Biso  1.000000 H
   H93        1.0     0.456979      0.761793      0.923706     Biso  1.000000 H
   H94        1.0     0.432199      0.715099      0.899272     Biso  1.000000 H
   H95        1.0     0.497151      0.857226      0.996919     Biso  1.000000 H
   H96        1.0     0.477303      0.817178      0.039072     Biso  1.000000 H
   H97        1.0     0.855383      0.730862      0.833200     Biso  1.000000 H
   H98        1.0     0.462205      0.813416      0.977746     Biso  1.000000 H
   H99        1.0     0.978176      0.558877      0.631932     Biso  1.000000 H
   H100       1.0     0.909856      0.312365      0.715983     Biso  1.000000 H
   H101       1.0     0.538716      0.296407      0.184448     Biso  1.000000 H
   H102       1.0     0.546167      0.182223      0.395597     Biso  1.000000 H
   H103       1.0     0.010302      0.279803      0.895175     Biso  1.000000 H
   H104       1.0     0.608747      0.155302      0.396293     Biso  1.000000 H
   H105       1.0     0.572729      0.166773      0.342443     Biso  1.000000 H
   H106       1.0     0.780024      0.404761      0.347376     Biso  1.000000 H
   H107       1.0     0.783283      0.354864      0.314035     Biso  1.000000 H
   H108       1.0     0.939640      0.591577      0.665401     Biso  1.000000 H
   H109       1.0     0.825090      0.364926      0.359627     Biso  1.000000 H
   H110       1.0     0.674972      0.258881      0.600407     Biso  1.000000 H
   H111       1.0     0.724343      0.220913      0.597786     Biso  1.000000 H
   H112       1.0     0.942748      0.341397      0.455299     Biso  1.000000 H
   H113       1.0     0.993576      0.316626      0.494608     Biso  1.000000 H
   H114       1.0     0.985450      0.370169      0.493314     Biso  1.000000 H
   H115       1.0     0.844379      0.302415      0.724761     Biso  1.000000 H
   H116       1.0     0.872316      0.340387      0.757299     Biso  1.000000 H
   H117       1.0     0.684930      0.227681      0.547246     Biso  1.000000 H
   H118       1.0     0.887576      0.617095      0.309101     Biso  1.000000 H
   H119       1.0     0.918039      0.602920      0.363812     Biso  1.000000 H
   H120       1.0     0.853960      0.598838      0.359746     Biso  1.000000 H
   H121       1.0     0.925569      0.518841      0.479792     Biso  1.000000 H
   H122       1.0     0.947551      0.521173      0.539964     Biso  1.000000 H
   H123       1.0     0.987651      0.512293      0.490837     Biso  1.000000 H
   H124       1.0     0.904188      0.708400      0.692790     Biso  1.000000 H
   H125       1.0     0.967437      0.689759      0.675518     Biso  1.000000 H
   H126       1.0     0.918538      0.661568      0.711183     Biso  1.000000 H
   H127       1.0     0.919278      0.766706      0.416938     Biso  1.000000 H
   H128       1.0     0.134436      0.718509      0.499411     Biso  1.000000 H
   H129       1.0     0.929398      0.801305      0.467271     Biso  1.000000 H
   H130       1.0     0.811650      0.808167      0.388671     Biso  1.000000 H
   H131       1.0     0.760584      0.842699      0.394627     Biso  1.000000 H
   H132       1.0     0.756611      0.793812      0.362656     Biso  1.000000 H
   H133       1.0     0.639788      0.646755      0.489087     Biso  1.000000 H
   H134       1.0     0.612765      0.639269      0.546023     Biso  1.000000 H
   H135       1.0     0.680051      0.638507      0.532936     Biso  1.000000 H
   H136       1.0     0.578548      0.916012      0.638894     Biso  1.000000 H
   H137       1.0     0.884661      0.815935      0.423102     Biso  1.000000 H
   H138       1.0     0.189365      0.698250      0.467834     Biso  1.000000 H
   H139       1.0     0.154152      0.739362      0.441618     Biso  1.000000 H
   H140       1.0     0.049579      0.808066      0.321000     Biso  1.000000 H
   H141       1.0     0.821355      0.558039      0.162854     Biso  1.000000 H
   H142       1.0     0.814399      0.566364      0.222154     Biso  1.000000 H
   H143       1.0     0.769035      0.534805      0.191757     Biso  1.000000 H
   H144       1.0     0.971761      0.397705      0.983457     Biso  1.000000 H
   H145       1.0     0.951180      0.378135      0.037944     Biso  1.000000 H
   H146       1.0     0.016861      0.380893      0.028112     Biso  1.000000 H
   H147       1.0     0.042272      0.625639      0.008686     Biso  1.000000 H
   H148       1.0     0.975605      0.629373      0.016199     Biso  1.000000 H
   H149       1.0     0.006749      0.590131      0.982199     Biso  1.000000 H
   H150       1.0     0.167860      0.498983      0.243924     Biso  1.000000 H
   H151       1.0     0.215973      0.521985      0.209953     Biso  1.000000 H
   H152       1.0     0.178486      0.488181      0.179669     Biso  1.000000 H
   H153       1.0     0.018402      0.746484      0.162604     Biso  1.000000 H
   H154       1.0     0.056233      0.715425      0.127842     Biso  1.000000 H
   H155       1.0     0.084260      0.747476      0.169668     Biso  1.000000 H
   H156       1.0     0.077765      0.790822      0.267128     Biso  1.000000 H
   H157       1.0     0.111759      0.785977      0.324102     Biso  1.000000 H
   H158       1.0     0.583212      0.925538      0.577924     Biso  1.000000 H
   H159       1.0     0.254518      0.241568      0.065962     Biso  1.000000 H
   H160       1.0     0.457806      0.232563      0.674520     Biso  1.000000 H
   H161       1.0     0.020796      0.250786      0.811911     Biso  1.000000 H
   H162       1.0     0.394855      0.232927      0.596025     Biso  1.000000 H
   H163       1.0     0.345998      0.360932      0.569609     Biso  1.000000 H
   H164       1.0     0.360884      0.345128      0.628713     Biso  1.000000 H
   H165       1.0     0.407797      0.350854      0.584306     Biso  1.000000 H
   H166       1.0     0.283198      0.299043      0.547210     Biso  1.000000 H
   H167       1.0     0.289803      0.301578      0.608641     Biso  1.000000 H
   H168       1.0     0.202499      0.208752      0.587588     Biso  1.000000 H
   H169       1.0     0.384444      0.262420      0.643438     Biso  1.000000 H
   H170       1.0     0.209444      0.257708      0.612408     Biso  1.000000 H
   H171       1.0     0.343071      0.207600      0.550623     Biso  1.000000 H
   H172       1.0     0.304278      0.232453      0.517983     Biso  1.000000 H
   H173       1.0     0.312861      0.129684      0.585532     Biso  1.000000 H
   H174       1.0     0.248570      0.147666      0.602621     Biso  1.000000 H
   H175       1.0     0.258147      0.106039      0.565168     Biso  1.000000 H
   H176       1.0     0.358316      0.142300      0.525402     Biso  1.000000 H
   H177       1.0     0.338831      0.173770      0.477529     Biso  1.000000 H
   H178       1.0     0.210920      0.253757      0.549358     Biso  1.000000 H
   H179       1.0     0.327936      0.149758      0.402928     Biso  1.000000 H
   H180       1.0     0.469327      0.303661      0.545608     Biso  1.000000 H
   H181       1.0     0.527603      0.282027      0.573145     Biso  1.000000 H
   H182       1.0     0.598672      0.064883      0.771562     Biso  1.000000 H
   H183       1.0     0.566608      0.083448      0.809079     Biso  1.000000 H
   H184       1.0     0.496977      0.042625      0.683695     Biso  1.000000 H
   H185       1.0     0.558534      0.029582      0.698722     Biso  1.000000 H
   H186       1.0     0.505972      0.005237      0.726508     Biso  1.000000 H
   H187       1.0     0.576819      0.112273      0.717603     Biso  1.000000 H
   H188       1.0     0.542073      0.134616      0.760605     Biso  1.000000 H
   H189       1.0     0.483873      0.250432      0.541690     Biso  1.000000 H
   H190       1.0     0.445741      0.163796      0.742743     Biso  1.000000 H
   H191       1.0     0.429238      0.115640      0.716556     Biso  1.000000 H
   H192       1.0     0.572876      0.178656      0.695552     Biso  1.000000 H
   H193       1.0     0.515156      0.201218      0.722748     Biso  1.000000 H
   H194       1.0     0.557632      0.277051      0.641905     Biso  1.000000 H
   H195       1.0     0.542168      0.271046      0.696648     Biso  1.000000 H
   H196       1.0     0.599061      0.248276      0.683101     Biso  1.000000 H
   H197       1.0     0.459581      0.203935      0.620216     Biso  1.000000 H
   H198       1.0     0.431549      0.161810      0.685034     Biso  1.000000 H
   H199       1.0     0.307333      0.096485      0.391749     Biso  1.000000 H
   H200       1.0     0.272070      0.131908      0.424613     Biso  1.000000 H
   H201       1.0     0.403711      0.090749      0.500856     Biso  1.000000 H
   H202       1.0     0.846668      0.080784      0.527626     Biso  1.000000 H
   H203       1.0     0.824120      0.038778      0.561896     Biso  1.000000 H
   H204       1.0     0.818096      0.037739      0.501857     Biso  1.000000 H
   H205       1.0     0.731903      0.129888      0.570288     Biso  1.000000 H
   H206       1.0     0.796583      0.138093      0.557711     Biso  1.000000 H
   H207       1.0     0.854654      0.107046      0.665229     Biso  1.000000 H
   H208       1.0     0.852241      0.074104      0.620642     Biso  1.000000 H
   H209       1.0     0.690859      0.066812      0.560698     Biso  1.000000 H
   H210       1.0     0.864428      0.129618      0.606986     Biso  1.000000 H
   H211       1.0     0.788430      0.178653      0.627178     Biso  1.000000 H
   H212       1.0     0.721503      0.129969      0.728398     Biso  1.000000 H
   H213       1.0     0.783139      0.107871      0.727003     Biso  1.000000 H
   H214       1.0     0.766033      0.142181      0.771590     Biso  1.000000 H
   H215       1.0     0.718520      0.208921      0.683945     Biso  1.000000 H
   H216       1.0     0.570418      0.340512      0.205308     Biso  1.000000 H
   H217       1.0     0.776342      0.236039      0.679296     Biso  1.000000 H
   H218       1.0     0.733398      0.157875      0.640264     Biso  1.000000 H
   H219       1.0     0.736978      0.027257      0.573609     Biso  1.000000 H
   H220       1.0     0.747087      0.028462      0.452526     Biso  1.000000 H
   H221       1.0     0.713354      0.981855      0.445723     Biso  1.000000 H
   H222       1.0     0.408155      0.127422      0.463884     Biso  1.000000 H
   H223       1.0     0.354336      0.030765      0.407233     Biso  1.000000 H
   H224       1.0     0.410780      0.008481      0.393296     Biso  1.000000 H
   H225       1.0     0.388202      0.012422      0.452877     Biso  1.000000 H
   H226       1.0     0.462043      0.051002      0.487344     Biso  1.000000 H
   H227       1.0     0.491505      0.087458      0.453946     Biso  1.000000 H
   H228       1.0     0.545967      0.061362      0.368890     Biso  1.000000 H
   H229       1.0     0.545155      0.009131      0.364698     Biso  1.000000 H
   H230       1.0     0.490893      0.039591      0.356921     Biso  1.000000 H
   H231       1.0     0.545483      0.031646      0.497819     Biso  1.000000 H
   H232       1.0     0.569463      0.068686      0.461726     Biso  1.000000 H
   H233       1.0     0.582589      0.951502      0.440293     Biso  1.000000 H
   H234       1.0     0.643259      0.948050      0.449676     Biso  1.000000 H
   H235       1.0     0.595304      0.959314      0.493487     Biso  1.000000 H
   H236       1.0     0.624158      0.037987      0.521716     Biso  1.000000 H
   H237       1.0     0.654380      0.069483      0.477220     Biso  1.000000 H
   H238       1.0     0.771271      0.985520      0.481950     Biso  1.000000 H
   H239       1.0     0.524061      0.974620      0.860347     Biso  1.000000 H
   H240       1.0     0.972758      0.221726      0.817653     Biso  1.000000 H
   H241       1.0     0.493341      0.995635      0.814733     Biso  1.000000 H
   H242       1.0     0.594854      0.057309      0.872326     Biso  1.000000 H
   H243       1.0     0.879197      0.208956      0.203526     Biso  1.000000 H
   H244       1.0     0.899320      0.333271      0.200560     Biso  1.000000 H
   H245       1.0     0.924746      0.294242      0.161894     Biso  1.000000 H
   H246       1.0     0.976704      0.350182      0.224182     Biso  1.000000 H
   H247       1.0     0.033107      0.320143      0.231038     Biso  1.000000 H
   H248       1.0     0.998452      0.320130      0.176457     Biso  1.000000 H
   H249       1.0     0.954001      0.228807      0.195907     Biso  1.000000 H
   H250       1.0     0.819165      0.216511      0.221304     Biso  1.000000 H
   H251       1.0     0.957146      0.224559      0.250759     Biso  1.000000 H
   H252       1.0     0.102927      0.255640      0.265754     Biso  1.000000 H
   H253       1.0     0.043718      0.277010      0.287682     Biso  1.000000 H
   H254       1.0     0.003308      0.174009      0.202349     Biso  1.000000 H
   H255       1.0     0.023255      0.172879      0.257594     Biso  1.000000 H
   H256       1.0     0.143151      0.198696      0.192734     Biso  1.000000 H
   H257       1.0     0.139673      0.185872      0.255524     Biso  1.000000 H
   H258       1.0     0.162784      0.148604      0.218929     Biso  1.000000 H
   H259       1.0     0.063608      0.228926      0.302375     Biso  1.000000 H
   H260       1.0     0.071976      0.172180      0.143800     Biso  1.000000 H
   H261       1.0     0.871995      0.234351      0.258023     Biso  1.000000 H
   H262       1.0     0.883011      0.245904      0.128703     Biso  1.000000 H
   H263       1.0     0.019154      0.213543      0.856734     Biso  1.000000 H
   H264       1.0     0.962743      0.221594      0.929501     Biso  1.000000 H
   H265       1.0     0.913217      0.229937      0.892497     Biso  1.000000 H
   H266       1.0     0.951237      0.301678      0.017162     Biso  1.000000 H
   H267       1.0     0.990755      0.269405      0.987189     Biso  1.000000 H
   H268       1.0     0.971825      0.321580      0.966782     Biso  1.000000 H
   H269       1.0     0.917850      0.222064      0.010822     Biso  1.000000 H
   H270       1.0     0.819063      0.231345      0.143948     Biso  1.000000 H
   H271       1.0     0.878963      0.210182      0.964319     Biso  1.000000 H
   H272       1.0     0.803029      0.203929      0.073542     Biso  1.000000 H
   H273       1.0     0.834538      0.176026      0.029806     Biso  1.000000 H
   H274       1.0     0.844897      0.311900      0.033278     Biso  1.000000 H
   H275       1.0     0.891160      0.280888      0.059503     Biso  1.000000 H
   H276       1.0     0.884763      0.340754      0.122905     Biso  1.000000 H
   H277       1.0     0.838847      0.356426      0.086618     Biso  1.000000 H
   H278       1.0     0.820245      0.350807      0.144436     Biso  1.000000 H
   H279       1.0     0.869643      0.201457      0.075619     Biso  1.000000 H
   H280       1.0     0.035932      0.126173      0.156078     Biso  1.000000 H
   H281       1.0     0.151138      0.054824      0.127944     Biso  1.000000 H
   H282       1.0     0.139930      0.078826      0.181749     Biso  1.000000 H
   H283       1.0     0.834769      0.116001      0.967738     Biso  1.000000 H
   H284       1.0     0.871995      0.086231      0.004135     Biso  1.000000 H
   H285       1.0     0.778412      0.008177      0.043135     Biso  1.000000 H
   H286       1.0     0.815517      0.992159      0.999126     Biso  1.000000 H
   H287       1.0     0.844844      0.023008      0.040453     Biso  1.000000 H
   H288       1.0     0.773865      0.039675      0.925818     Biso  1.000000 H
   H289       1.0     0.746226      0.079520      0.937984     Biso  1.000000 H
   H290       1.0     0.843488      0.004760      0.924616     Biso  1.000000 H
   H291       1.0     0.635744      0.024188      0.008728     Biso  1.000000 H
   H292       1.0     0.650400      0.074769      0.989157     Biso  1.000000 H
   H293       1.0     0.708671      0.030583      0.886112     Biso  1.000000 H
   H294       1.0     0.660135      0.056691      0.916260     Biso  1.000000 H
   H295       1.0     0.622629      0.934468      0.858319     Biso  1.000000 H
   H296       1.0     0.676969      0.962863      0.843001     Biso  1.000000 H
   H297       1.0     0.672476      0.941025      0.900432     Biso  1.000000 H
   H298       1.0     0.641314      0.045907      0.838260     Biso  1.000000 H
   H299       1.0     0.685647      0.049003      0.034557     Biso  1.000000 H
   H300       1.0     0.895604      0.008710      0.964083     Biso  1.000000 H
   H301       1.0     0.905559      0.011465      0.902224     Biso  1.000000 H
   H302       1.0     0.946025      0.075137      0.972981     Biso  1.000000 H
   H303       1.0     0.092036      0.053719      0.151320     Biso  1.000000 H
   H304       1.0     0.076334      0.139853      0.062469     Biso  1.000000 H
   H305       1.0     0.043643      0.101201      0.092694     Biso  1.000000 H
   H306       1.0     0.153374      0.061058      0.998196     Biso  1.000000 H
   H307       1.0     0.152766      0.111721      0.023090     Biso  1.000000 H
   H308       1.0     0.170952      0.067707      0.056267     Biso  1.000000 H
   H309       1.0     0.022752      0.064167      0.003836     Biso  1.000000 H
   H310       1.0     0.076866      0.062596      0.966621     Biso  1.000000 H
   H311       1.0     0.085118      0.177573      0.944893     Biso  1.000000 H
   H312       1.0     0.104913      0.166745      0.999421     Biso  1.000000 H
   H313       1.0     0.116865      0.132025      0.949317     Biso  1.000000 H
   H314       1.0     0.056554      0.110460      0.901855     Biso  1.000000 H
   H315       1.0     0.009966      0.147091      0.911656     Biso  1.000000 H
   H316       1.0     0.945179      0.123609      0.860993     Biso  1.000000 H
   H317       1.0     0.004762      0.103350      0.834507     Biso  1.000000 H
   H318       1.0     0.945855      0.073179      0.835428     Biso  1.000000 H
   H319       1.0     0.927136      0.121874      0.949053     Biso  1.000000 H
   H320       1.0     0.505859      0.025518      0.861278     Biso  1.000000 H
   H321       1.0     0.603109      0.289488      0.204612     Biso  1.000000 H
   H322       1.0     0.479682      0.109208      0.160963     Biso  1.000000 H
   H323       1.0     0.330859      0.265850      0.312924     Biso  1.000000 H
   H324       1.0     0.732065      0.428362      0.646407     Biso  1.000000 H
   H325       1.0     0.667344      0.421820      0.662315     Biso  1.000000 H
   H326       1.0     0.707467      0.322032      0.949071     Biso  1.000000 H
   H327       1.0     0.673189      0.366627      0.956644     Biso  1.000000 H
   H328       1.0     0.729335      0.368691      0.920023     Biso  1.000000 H
   H329       1.0     0.404134      0.377957      0.803625     Biso  1.000000 H
   H330       1.0     0.456201      0.408329      0.780977     Biso  1.000000 H
   H331       1.0     0.700560      0.384056      0.625396     Biso  1.000000 H
   H332       1.0     0.422758      0.423929      0.834992     Biso  1.000000 H
   H333       1.0     0.326184      0.208824      0.852851     Biso  1.000000 H
   H334       1.0     0.359143      0.188982      0.805308     Biso  1.000000 H
   H335       1.0     0.648274      0.265988      0.963742     Biso  1.000000 H
   H336       1.0     0.657476      0.230081      0.010436     Biso  1.000000 H
   H337       1.0     0.615023      0.274067      0.021344     Biso  1.000000 H
   H338       1.0     0.341598      0.093620      0.999850     Biso  1.000000 H
   H339       1.0     0.396657      0.087201      0.971062     Biso  1.000000 H
   H340       1.0     0.343426      0.242638      0.812126     Biso  1.000000 H
   H341       1.0     0.342592      0.102584      0.940075     Biso  1.000000 H
   H342       1.0     0.690319      0.151534      0.866089     Biso  1.000000 H
   H343       1.0     0.678756      0.135200      0.807579     Biso  1.000000 H
   H344       1.0     0.436980      0.909913      0.413572     Biso  1.000000 H
   H345       1.0     0.635079      0.002353      0.307815     Biso  1.000000 H
   H346       1.0     0.696719      0.981472      0.321565     Biso  1.000000 H
   H347       1.0     0.683382      0.033795      0.325888     Biso  1.000000 H
   H348       1.0     0.669443      0.896675      0.521705     Biso  1.000000 H
   H349       1.0     0.685077      0.906060      0.583423     Biso  1.000000 H
   H350       1.0     0.728629      0.880840      0.546381     Biso  1.000000 H
   H351       1.0     0.638512      0.176428      0.833629     Biso  1.000000 H
   H352       1.0     0.736015      0.165917      0.438336     Biso  1.000000 H
   H353       1.0     0.694352      0.132087      0.421408     Biso  1.000000 H
   H354       1.0     0.700639      0.024919      0.708842     Biso  1.000000 H
   H355       1.0     0.687713      0.016423      0.649882     Biso  1.000000 H
   H356       1.0     0.643795      0.048439      0.682416     Biso  1.000000 H
   H357       1.0     0.906578      0.198322      0.769524     Biso  1.000000 H
   H358       1.0     0.930898      0.165211      0.728434     Biso  1.000000 H
   H359       1.0     0.921121      0.146492      0.788736     Biso  1.000000 H
   H360       1.0     0.670421      0.174906      0.456933     Biso  1.000000 H
   H361       1.0     0.478791      0.900901      0.371076     Biso  1.000000 H
   H362       1.0     0.201608      0.163237      0.999210     Biso  1.000000 H
   H363       1.0     0.250930      0.139549      0.962769     Biso  1.000000 H
   H364       1.0     0.681814      0.898373      0.370422     Biso  1.000000 H
   H365       1.0     0.615329      0.889907      0.355245     Biso  1.000000 H
   H366       1.0     0.655800      0.921560      0.313933     Biso  1.000000 H
   H367       1.0     0.642734      0.657348      0.348800     Biso  1.000000 H
   H368       1.0     0.608328      0.630619      0.303854     Biso  1.000000 H
   H369       1.0     0.579700      0.644647      0.358871     Biso  1.000000 H
   H370       1.0     0.627972      0.644421      0.177522     Biso  1.000000 H
   H371       1.0     0.576615      0.945854      0.165946     Biso  1.000000 H
   H372       1.0     0.630895      0.666924      0.121981     Biso  1.000000 H
   H373       1.0     0.342248      0.771052      0.080135     Biso  1.000000 H
   H374       1.0     0.395777      0.772693      0.035407     Biso  1.000000 H
   H375       1.0     0.402257      0.796673      0.086158     Biso  1.000000 H
   H376       1.0     0.248343      0.671602      0.303032     Biso  1.000000 H
   H377       1.0     0.197424      0.670033      0.261597     Biso  1.000000 H
   H378       1.0     0.221139      0.719485      0.282703     Biso  1.000000 H
   H379       1.0     0.219326      0.544632      0.057272     Biso  1.000000 H
   H380       1.0     0.582072      0.628419      0.136519     Biso  1.000000 H
   H381       1.0     0.237860      0.125448      0.026899     Biso  1.000000 H
   H382       1.0     0.614940      0.962631      0.213798     Biso  1.000000 H
   H383       1.0     0.959658      0.800630      0.259467     Biso  1.000000 H
   H384       1.0     0.450382      0.156159      0.137352     Biso  1.000000 H
   H385       1.0     0.443025      0.141243      0.198339     Biso  1.000000 H
   H386       1.0     0.525167      0.065786      0.197724     Biso  1.000000 H
   H387       1.0     0.521209      0.059160      0.259643     Biso  1.000000 H
   H388       1.0     0.567386      0.027040      0.224562     Biso  1.000000 H
   H389       1.0     0.773370      0.092870      0.360811     Biso  1.000000 H
   H390       1.0     0.829916      0.084935      0.331219     Biso  1.000000 H
   H391       1.0     0.632440      0.978259      0.156331     Biso  1.000000 H
   H392       1.0     0.805246      0.041040      0.357782     Biso  1.000000 H
   H393       1.0     0.932684      0.151606      0.227742     Biso  1.000000 H
   H394       1.0     0.941358      0.115445      0.269697     Biso  1.000000 H
   H395       1.0     0.841105      0.929573      0.054345     Biso  1.000000 H
   H396       1.0     0.881485      0.897193      0.077728     Biso  1.000000 H
   H397       1.0     0.902247      0.950407      0.067839     Biso  1.000000 H
   H398       1.0     0.902379      0.790022      0.290413     Biso  1.000000 H
   H399       1.0     0.939288      0.833565      0.305443     Biso  1.000000 H
   H400       1.0     0.887504      0.144995      0.275847     Biso  1.000000 H
   H401       1.0     0.494881      0.899458      0.430496     Biso  1.000000 H
   H402       1.0     0.464773      0.143072      0.311255     Biso  1.000000 H
   H403       1.0     0.409726      0.170385      0.335147     Biso  1.000000 H
   H404       1.0     0.015993      0.293683      0.103894     Biso  1.000000 H
   H405       1.0     0.012855      0.243096      0.071834     Biso  1.000000 H
   H406       1.0     0.005147      0.030921      0.232296     Biso  1.000000 H
   H407       1.0     0.009637      0.052320      0.285430     Biso  1.000000 H
   H408       1.0     0.066531      0.029895      0.261991     Biso  1.000000 H
   H409       1.0     0.253351      0.178775      0.109263     Biso  1.000000 H
   H410       1.0     0.281099      0.137628      0.135820     Biso  1.000000 H
   H411       1.0     0.069272      0.266976      0.094993     Biso  1.000000 H
   H412       1.0     0.240243      0.168653      0.166287     Biso  1.000000 H
   H413       1.0     0.017987      0.970054      0.074410     Biso  1.000000 H
   H414       1.0     0.000079      0.988566      0.131641     Biso  1.000000 H
   H415       1.0     0.918217      0.121448      0.077320     Biso  1.000000 H
   H416       1.0     0.934292      0.171358      0.058878     Biso  1.000000 H
   H417       1.0     0.969385      0.147487      0.103539     Biso  1.000000 H
   H418       1.0     0.069571      0.999680      0.819186     Biso  1.000000 H
   H419       1.0     0.027171      0.966879      0.855989     Biso  1.000000 H
   H420       1.0     0.062535      0.971488      0.123362     Biso  1.000000 H
   H421       1.0     0.087618      0.991262      0.875373     Biso  1.000000 H
   H422       1.0     0.893777      0.284804      0.366251     Biso  1.000000 H
   H423       1.0     0.954107      0.301044      0.377001     Biso  1.000000 H
   H424       1.0     0.799600      0.210835      0.793445     Biso  1.000000 H
   H425       1.0     0.969446      0.396682      0.821617     Biso  1.000000 H
   H426       1.0     0.931185      0.404952      0.871374     Biso  1.000000 H
   H427       1.0     0.905600      0.374900      0.822654     Biso  1.000000 H
   H428       1.0     0.808954      0.347531      0.896029     Biso  1.000000 H
   H429       1.0     0.777362      0.301543      0.882278     Biso  1.000000 H
   H430       1.0     0.826903      0.315973      0.848641     Biso  1.000000 H
   H431       1.0     0.942959      0.250723      0.384911     Biso  1.000000 H
   H432       1.0     0.715348      0.202197      0.947925     Biso  1.000000 H
   H433       1.0     0.748013      0.239139      0.916105     Biso  1.000000 H
   H434       1.0     0.698759      0.360405      0.040464     Biso  1.000000 H
   H435       1.0     0.676282      0.350371      0.093949     Biso  1.000000 H
   H436       1.0     0.676222      0.309748      0.051291     Biso  1.000000 H
   H437       1.0     0.719396      0.303918      0.261657     Biso  1.000000 H
   H438       1.0     0.685938      0.267635      0.231210     Biso  1.000000 H
   H439       1.0     0.698902      0.318235      0.206780     Biso  1.000000 H
   H440       1.0     0.758907      0.186456      0.904972     Biso  1.000000 H
   H441       1.0     0.814501      0.035672      0.794668     Biso  1.000000 H
   H442       1.0     0.835199      0.087289      0.790542     Biso  1.000000 H
   H443       1.0     0.775466      0.068595      0.819716     Biso  1.000000 H
   H444       1.0     0.505274      0.401288      0.644689     Biso  1.000000 H
   H445       1.0     0.552662      0.372833      0.673930     Biso  1.000000 H
   H446       1.0     0.487091      0.374329      0.692614     Biso  1.000000 H
   H447       1.0     0.385955      0.242380      0.436210     Biso  1.000000 H
   H448       1.0     0.440960      0.218208      0.467099     Biso  1.000000 H
   H449       1.0     0.442297      0.269304      0.455274     Biso  1.000000 H
   H450       1.0     0.319768      0.224113      0.728845     Biso  1.000000 H
   H451       1.0     0.577272      0.150364      0.539669     Biso  1.000000 H
   H452       1.0     0.256813      0.212777      0.721644     Biso  1.000000 H
   H453       1.0     0.163094      0.206979      0.448875     Biso  1.000000 H
   H454       1.0     0.203980      0.187231      0.405707     Biso  1.000000 H
   H455       1.0     0.203753      0.242443      0.421254     Biso  1.000000 H
   H456       1.0     0.233963      0.021236      0.524038     Biso  1.000000 H
   H457       1.0     0.251734      0.999520      0.471618     Biso  1.000000 H
   H458       1.0     0.194471      0.025280      0.472968     Biso  1.000000 H
   H459       1.0     0.474708      0.183801      0.350093     Biso  1.000000 H
   H460       1.0     0.272489      0.262816      0.742936     Biso  1.000000 H
   H461       1.0     0.545918      0.182568      0.497208     Biso  1.000000 H
   H462       1.0     0.602943      0.199273      0.521782     Biso  1.000000 H
   H463       1.0     0.552670      0.040861      0.603784     Biso  1.000000 H
   H464       1.0     0.697490      0.173642      0.036809     Biso  1.000000 H
   H465       1.0     0.735052      0.154650      0.084218     Biso  1.000000 H
   H466       1.0     0.683238      0.126502      0.063720     Biso  1.000000 H
   H467       1.0     0.683144      0.898922      0.018202     Biso  1.000000 H
   H468       1.0     0.699737      0.919690      0.069961     Biso  1.000000 H
   H469       1.0     0.748318      0.911617      0.027258     Biso  1.000000 H
   H470       1.0     0.490822      0.981918      0.947609     Biso  1.000000 H
   H471       1.0     0.488835      0.029942      0.961736     Biso  1.000000 H
   H472       1.0     0.515874      0.995541      0.005513     Biso  1.000000 H
   H473       1.0     0.619838      0.902310      0.758332     Biso  1.000000 H
   H474       1.0     0.561219      0.912200      0.725946     Biso  1.000000 H
   H475       1.0     0.559391      0.884759      0.775600     Biso  1.000000 H
   H476       1.0     0.437097      0.138921      0.864715     Biso  1.000000 H
   H477       1.0     0.436655      0.090053      0.879551     Biso  1.000000 H
   H478       1.0     0.398726      0.102217      0.834268     Biso  1.000000 H
   H479       1.0     0.605386      0.069511      0.592810     Biso  1.000000 H
   H480       1.0     0.551669      0.084204      0.560937     Biso  1.000000 H
   H481       1.0     0.219342      0.534818      0.117852     Biso  1.000000 H
   H482       1.0     0.276896      0.545834      0.095105     Biso  1.000000 H
   H483       1.0     0.138624      0.596770      0.017935     Biso  1.000000 H
   H484       1.0     0.196725      0.583655      0.985038     Biso  1.000000 H
   H485       1.0     0.216354      0.536415      0.306919     Biso  1.000000 H
   H486       1.0     0.251674      0.494073      0.320465     Biso  1.000000 H
   H487       1.0     0.215996      0.310601      0.469162     Biso  1.000000 H
   H488       1.0     0.226328      0.356090      0.504377     Biso  1.000000 H
   H489       1.0     0.273433      0.340453      0.465244     Biso  1.000000 H
   H490       1.0     0.084951      0.392349      0.193395     Biso  1.000000 H
   H491       1.0     0.092663      0.446667      0.207163     Biso  1.000000 H
   H492       1.0     0.265548      0.541624      0.351435     Biso  1.000000 H
   H493       1.0     0.063181      0.410537      0.249403     Biso  1.000000 H
   H494       1.0     0.191461      0.262370      0.138195     Biso  1.000000 H
   H495       1.0     0.204935      0.247322      0.195391     Biso  1.000000 H
   H496       1.0     0.270933      0.416276      0.045826     Biso  1.000000 H
   H497       1.0     0.317445      0.395944      0.008890     Biso  1.000000 H
   H498       1.0     0.325383      0.446444      0.035481     Biso  1.000000 H
   H499       1.0     0.460170      0.335156      0.043799     Biso  1.000000 H
   H500       1.0     0.505119      0.372739      0.026959     Biso  1.000000 H
   H501       1.0     0.254789      0.256638      0.155347     Biso  1.000000 H
   H502       1.0     0.443056      0.372575      0.006978     Biso  1.000000 H
   H503       1.0     0.071262      0.550186      0.597698     Biso  1.000000 H
   H504       1.0     0.091484      0.589626      0.565670     Biso  1.000000 H
   H505       1.0     0.077996      0.344422      0.140616     Biso  1.000000 H
   H506       1.0     0.139930      0.491949      0.012685     Biso  1.000000 H
   H507       1.0     0.202159      0.478115      0.023565     Biso  1.000000 H
   H508       1.0     0.154956      0.449095      0.050156     Biso  1.000000 H
   H509       1.0     0.068838      0.356558      0.723331     Biso  1.000000 H
   H510       1.0     0.021574      0.351939      0.768421     Biso  1.000000 H
   H511       1.0     0.074884      0.316346      0.766969     Biso  1.000000 H
   H512       1.0     0.124519      0.581063      0.618213     Biso  1.000000 H
   H513       1.0     0.300463      0.310147      0.801538     Biso  1.000000 H
   H514       1.0     0.320882      0.329722      0.853571     Biso  1.000000 H
   H515       1.0     0.368754      0.431387      0.589369     Biso  1.000000 H
   H516       1.0     0.358494      0.469474      0.632351     Biso  1.000000 H
   H517       1.0     0.316796      0.467187      0.584109     Biso  1.000000 H
   H518       1.0     0.054594      0.471429      0.690776     Biso  1.000000 H
   H519       1.0     0.011677      0.432127      0.678217     Biso  1.000000 H
   H520       1.0     0.027677      0.472126      0.635598     Biso  1.000000 H
   H521       1.0     0.255292      0.313714      0.849045     Biso  1.000000 H
   H522       1.0     0.459962      0.563066      0.181830     Biso  1.000000 H
   H523       1.0     0.513015      0.575767      0.225900     Biso  1.000000 H
   H524       1.0     0.454426      0.558865      0.239669     Biso  1.000000 H
   H525       1.0     0.246682      0.735462      0.608778     Biso  1.000000 H
   H526       1.0     0.266628      0.744564      0.547102     Biso  1.000000 H
   H527       1.0     0.306253      0.751517      0.595396     Biso  1.000000 H
   H528       1.0     0.173003      0.633728      0.405943     Biso  1.000000 H
   H529       1.0     0.183863      0.583696      0.378234     Biso  1.000000 H
   H530       1.0     0.198089      0.629881      0.347099     Biso  1.000000 H
   H531       1.0     0.507807      0.644873      0.470610     Biso  1.000000 H
   H532       1.0     0.386215      0.549521      0.733434     Biso  1.000000 H
   H533       1.0     0.502030      0.661436      0.411544     Biso  1.000000 H
   H534       1.0     0.539445      0.534667      0.308714     Biso  1.000000 H
   H535       1.0     0.563428      0.504164      0.355519     Biso  1.000000 H
   H536       1.0     0.545396      0.556031      0.368721     Biso  1.000000 H
   H537       1.0     0.326826      0.497509      0.231593     Biso  1.000000 H
   H538       1.0     0.378893      0.527300      0.259436     Biso  1.000000 H
   H539       1.0     0.316022      0.532214      0.278753     Biso  1.000000 H
   H540       1.0     0.380513      0.253877      0.352117     Biso  1.000000 H
   H541       1.0     0.528271      0.611385      0.423956     Biso  1.000000 H
   H542       1.0     0.335734      0.539459      0.699952     Biso  1.000000 H
   H543       1.0     0.387824      0.505535      0.697306     Biso  1.000000 H
   H544       1.0     0.586705      0.666594      0.629729     Biso  1.000000 H
   H545       1.0     0.772555      0.439256      0.150340     Biso  1.000000 H
   H546       1.0     0.727881      0.399054      0.142352     Biso  1.000000 H
   H547       1.0     0.756649      0.403581      0.196361     Biso  1.000000 H
   H548       1.0     0.726397      0.615332      0.331640     Biso  1.000000 H
   H549       1.0     0.716311      0.611021      0.268748     Biso  1.000000 H
   H550       1.0     0.776629      0.604140      0.288677     Biso  1.000000 H
   H551       1.0     0.844224      0.485780      0.447374     Biso  1.000000 H
   H552       1.0     0.851256      0.487851      0.385789     Biso  1.000000 H
   H553       1.0     0.845916      0.442845      0.411913     Biso  1.000000 H
   H554       1.0     0.817670      0.532233      0.515636     Biso  1.000000 H
   H555       1.0     0.839353      0.483932      0.537216     Biso  1.000000 H
   H556       1.0     0.808101      0.519365      0.575063     Biso  1.000000 H
   H557       1.0     0.487264      0.407692      0.500965     Biso  1.000000 H
   H558       1.0     0.485154      0.408997      0.561660     Biso  1.000000 H
   H559       1.0     0.534423      0.378929      0.529204     Biso  1.000000 H
   H560       1.0     0.625756      0.626916      0.656805     Biso  1.000000 H
   H561       1.0     0.566347      0.645438      0.677518     Biso  1.000000 H
   H562       1.0     0.138982      0.333415      0.129171     Biso  1.000000 H
   H563       1.0     0.329375      0.291195      0.368616     Biso  1.000000 H
   H564       1.0     0.115449      0.386510      0.112739     Biso  1.000000 H
   H565       1.0     0.820275      0.693277      0.326211     Biso  1.000000 H
   H566       1.0     0.328287      0.152959      0.227144     Biso  1.000000 H
   H567       1.0     0.321747      0.125301      0.279962     Biso  1.000000 H
   H568       1.0     0.559051      0.033952      0.068710     Biso  1.000000 H
   H569       1.0     0.560392      0.980926      0.092687     Biso  1.000000 H
   H570       1.0     0.561555      0.028129      0.129810     Biso  1.000000 H
   H571       1.0     0.507483      0.895662      0.185681     Biso  1.000000 H
   H572       1.0     0.525035      0.866614      0.134505     Biso  1.000000 H
   H573       1.0     0.278312      0.115762      0.233979     Biso  1.000000 H
   H574       1.0     0.484213      0.847336      0.180772     Biso  1.000000 H
   H575       1.0     0.280525      0.008233      0.070344     Biso  1.000000 H
   H576       1.0     0.224677      0.977193      0.062213     Biso  1.000000 H
   H577       1.0     0.292730      0.782400      0.875011     Biso  1.000000 H
   H578       1.0     0.263430      0.806183      0.925551     Biso  1.000000 H
   H579       1.0     0.318869      0.777967      0.929975     Biso  1.000000 H
   H580       1.0     0.530318      0.849366      0.861218     Biso  1.000000 H
   H581       1.0     0.506195      0.874677      0.913909     Biso  1.000000 H
   H582       1.0     0.241131      0.012425      0.019232     Biso  1.000000 H
   H583       1.0     0.548240      0.901812      0.877330     Biso  1.000000 H
   H584       1.0     0.342014      0.830164      0.241679     Biso  1.000000 H
   H585       1.0     0.395327      0.818677      0.278398     Biso  1.000000 H
   H586       1.0     0.151584      0.609113      0.958872     Biso  1.000000 H
   H587       1.0     0.266972      0.821228      0.187881     Biso  1.000000 H
   H588       1.0     0.283198      0.766483      0.178513     Biso  1.000000 H
   H589       1.0     0.233740      0.781484      0.220450     Biso  1.000000 H
   H590       1.0     0.963959      0.833622      0.119872     Biso  1.000000 H
   H591       1.0     0.967471      0.858221      0.174405     Biso  1.000000 H
   H592       1.0     0.967565      0.803391      0.171291     Biso  1.000000 H
   H593       1.0     0.402619      0.847418      0.223996     Biso  1.000000 H
   H594       1.0     0.230821      0.987239      0.197984     Biso  1.000000 H
   H595       1.0     0.246988      0.965116      0.145817     Biso  1.000000 H
   H596       1.0     0.197809      0.794370      0.390375     Biso  1.000000 H
   H597       1.0     0.246901      0.779649      0.353793     Biso  1.000000 H
   H598       1.0     0.186960      0.755778      0.341870     Biso  1.000000 H
   H599       1.0     0.172274      0.048875      0.244044     Biso  1.000000 H
   H600       1.0     0.199618      0.069109      0.291059     Biso  1.000000 H
   H601       1.0     0.138926      0.043588      0.290870     Biso  1.000000 H
   H602       1.0     0.186658      0.990898      0.151081     Biso  1.000000 H
   H603       1.0     0.380687      0.906882      0.632182     Biso  1.000000 H
   H604       1.0     0.320859      0.921829      0.647103     Biso  1.000000 H
   H605       1.0     0.329348      0.874903      0.618786     Biso  1.000000 H
   H606       1.0     0.647394      0.534809      0.834335     Biso  1.000000 H
   H607       1.0     0.644554      0.482404      0.820064     Biso  1.000000 H
   H608       1.0     0.701289      0.501854      0.845573     Biso  1.000000 H
   H609       1.0     0.828409      0.412709      0.010225     Biso  1.000000 H
   H610       1.0     0.832994      0.414130      0.950248     Biso  1.000000 H
   H611       1.0     0.786557      0.380598      0.975202     Biso  1.000000 H
   H612       1.0     0.903048      0.461294      0.966294     Biso  1.000000 H
   H613       1.0     0.513204      0.596503      0.821322     Biso  1.000000 H
   H614       1.0     0.924637      0.512406      0.991884     Biso  1.000000 H
   H615       1.0     0.871244      0.677526      0.902270     Biso  1.000000 H
   H616       1.0     0.838700      0.719476      0.917982     Biso  1.000000 H
   H617       1.0     0.804524      0.673623      0.903219     Biso  1.000000 H
   H618       1.0     0.754897      0.751438      0.008876     Biso  1.000000 H
   H619       1.0     0.781931      0.793197      0.040035     Biso  1.000000 H
   H620       1.0     0.717961      0.786536      0.043992     Biso  1.000000 H
   H621       1.0     0.784971      0.736905      0.307460     Biso  1.000000 H
   H622       1.0     0.922522      0.506140      0.931216     Biso  1.000000 H
   H623       1.0     0.567760      0.566602      0.831967     Biso  1.000000 H
   H624       1.0     0.523305      0.544607      0.798224     Biso  1.000000 H
   H625       1.0     0.479942      0.662418      0.024664     Biso  1.000000 H
   H626       1.0     0.490727      0.647857      0.719030     Biso  1.000000 H
   H627       1.0     0.450351      0.646454      0.765100     Biso  1.000000 H
   H628       1.0     0.494428      0.688304      0.755081     Biso  1.000000 H
   H629       1.0     0.157781      0.801148      0.736825     Biso  1.000000 H
   H630       1.0     0.212522      0.814197      0.769545     Biso  1.000000 H
   H631       1.0     0.167274      0.773581      0.791997     Biso  1.000000 H
   H632       1.0     0.205415      0.517891      0.726852     Biso  1.000000 H
   H633       1.0     0.183131      0.551507      0.681994     Biso  1.000000 H
   H634       1.0     0.143348      0.528273      0.727921     Biso  1.000000 H
   H635       1.0     0.353724      0.694387      0.918491     Biso  1.000000 H
   H636       1.0     0.306060      0.672992      0.953270     Biso  1.000000 H
   H637       1.0     0.292065      0.705975      0.901785     Biso  1.000000 H
   H638       1.0     0.279596      0.427829      0.886260     Biso  1.000000 H
   H639       1.0     0.319250      0.416715      0.937886     Biso  1.000000 H
   H640       1.0     0.343033      0.414372      0.881512     Biso  1.000000 H
   H641       1.0     0.414907      0.653090      0.035681     Biso  1.000000 H
   H642       1.0     0.436391      0.680224      0.987101     Biso  1.000000 H
   H643       1.0     0.759855      0.691275      0.295975     Biso  1.000000 H
   H644       1.0     0.812753      0.258941      0.765697     Biso  1.000000 H
   H645       1.0     0.067105      0.336553      0.988334     Biso  1.000000 H
   H646       1.0     0.693487      0.273596      0.700964     Biso  1.000000 H
   H647       1.0     0.667219      0.656168      0.831721     Biso  1.000000 H
   H648       1.0     0.721190      0.767650      0.799946     Biso  1.000000 H
   H649       1.0     0.678824      0.792538      0.836654     Biso  1.000000 H
   H650       1.0     0.729550      0.763948      0.860480     Biso  1.000000 H
   H651       1.0     0.649705      0.757221      0.899680     Biso  1.000000 H
   H652       1.0     0.685168      0.715337      0.911445     Biso  1.000000 H
   H653       1.0     0.630261      0.647411      0.913086     Biso  1.000000 H
   H654       1.0     0.723202      0.675135      0.850402     Biso  1.000000 H
   H655       1.0     0.566347      0.644399      0.924859     Biso  1.000000 H
   H656       1.0     0.642556      0.693010      0.980860     Biso  1.000000 H
   H657       1.0     0.580659      0.683290      0.989427     Biso  1.000000 H
   H658       1.0     0.622787      0.797975      0.949096     Biso  1.000000 H
   H659       1.0     0.645456      0.809939      0.004314     Biso  1.000000 H
   H660       1.0     0.675912      0.774042      0.971509     Biso  1.000000 H
   H661       1.0     0.601735      0.710963      0.065094     Biso  1.000000 H
   H662       1.0     0.625095      0.763845      0.070471     Biso  1.000000 H
   H663       1.0     0.585429      0.654719      0.867888     Biso  1.000000 H
   H664       1.0     0.901446      0.478724      0.308978     Biso  1.000000 H
   H665       1.0     0.668669      0.697531      0.728051     Biso  1.000000 H
   H666       1.0     0.700949      0.650957      0.709956     Biso  1.000000 H
   H667       1.0     0.822284      0.466114      0.635432     Biso  1.000000 H
   H668       1.0     0.937280      0.447442      0.710413     Biso  1.000000 H
   H669       1.0     0.925109      0.484121      0.754491     Biso  1.000000 H
   H670       1.0     0.889034      0.437314      0.750218     Biso  1.000000 H
   H671       1.0     0.801938      0.479552      0.734035     Biso  1.000000 H
   H672       1.0     0.804672      0.524251      0.706425     Biso  1.000000 H
   H673       1.0     0.921989      0.547770      0.780566     Biso  1.000000 H
   H674       1.0     0.650770      0.643818      0.749090     Biso  1.000000 H
   H675       1.0     0.885994      0.577446      0.739682     Biso  1.000000 H
   H676       1.0     0.794110      0.566671      0.824966     Biso  1.000000 H
   H677       1.0     0.755833      0.532211      0.791849     Biso  1.000000 H
   H678       1.0     0.824323      0.627070      0.738877     Biso  1.000000 H
   H679       1.0     0.819452      0.587850      0.701157     Biso  1.000000 H
   H680       1.0     0.778547      0.629571      0.694269     Biso  1.000000 H
   H681       1.0     0.767521      0.626894      0.819660     Biso  1.000000 H
   H682       1.0     0.706130      0.605577      0.806496     Biso  1.000000 H
   H683       1.0     0.880012      0.586899      0.801331     Biso  1.000000 H
   H684       1.0     0.817791      0.438333      0.682416     Biso  1.000000 H
   H685       1.0     0.113885      0.605304      0.859697     Biso  1.000000 H
   H686       1.0     0.015491      0.473170      0.338064     Biso  1.000000 H
   H687       1.0     0.115868      0.583332      0.119233     Biso  1.000000 H
   H688       1.0     0.017443      0.588355      0.240365     Biso  1.000000 H
   H689       1.0     0.005786      0.624023      0.201558     Biso  1.000000 H
   H690       1.0     0.135463      0.644907      0.297645     Biso  1.000000 H
   H691       1.0     0.108395      0.594285      0.297170     Biso  1.000000 H
   H692       1.0     0.141898      0.613763      0.247256     Biso  1.000000 H
   H693       1.0     0.996767      0.633003      0.293477     Biso  1.000000 H
   H694       1.0     0.133915      0.617764      0.164273     Biso  1.000000 H
   H695       1.0     0.996586      0.676371      0.270684     Biso  1.000000 H
   H696       1.0     0.958038      0.672813      0.366999     Biso  1.000000 H
   H697       1.0     0.987817      0.721135      0.376452     Biso  1.000000 H
   H698       1.0     0.086983      0.631688      0.367878     Biso  1.000000 H
   H699       1.0     0.029055      0.611567      0.366859     Biso  1.000000 H
   H700       1.0     0.037453      0.575259      0.444342     Biso  1.000000 H
   H701       1.0     0.096579      0.597109      0.429853     Biso  1.000000 H
   H702       1.0     0.070783      0.608354      0.485411     Biso  1.000000 H
   H703       1.0     0.961780      0.712843      0.319629     Biso  1.000000 H
   H704       1.0     0.967467      0.435281      0.346758     Biso  1.000000 H
   H705       1.0     0.080892      0.628353      0.133922     Biso  1.000000 H
   H706       1.0     0.003387      0.541426      0.178741     Biso  1.000000 H
   H707       1.0     0.968502      0.476142      0.383621     Biso  1.000000 H
   H708       1.0     0.981364      0.449350      0.256392     Biso  1.000000 H
   H709       1.0     0.990453      0.501763      0.247924     Biso  1.000000 H
   H710       1.0     0.854991      0.437329      0.242041     Biso  1.000000 H
   H711       1.0     0.883856      0.415853      0.194221     Biso  1.000000 H
   H712       1.0     0.914527      0.412229      0.247221     Biso  1.000000 H
   H713       1.0     0.967452      0.425745      0.181819     Biso  1.000000 H
   H714       1.0     0.996077      0.585550      0.139843     Biso  1.000000 H
   H715       1.0     0.002401      0.468618      0.177339     Biso  1.000000 H
   H716       1.0     0.875428      0.485269      0.123552     Biso  1.000000 H
   H717       1.0     0.890725      0.458248      0.070868     Biso  1.000000 H
   H718       1.0     0.949254      0.538765      0.109214     Biso  1.000000 H
   H719       1.0     0.965617      0.509391      0.062146     Biso  1.000000 H
   H720       1.0     0.070858      0.480905      0.145265     Biso  1.000000 H
   H721       1.0     0.074249      0.475564      0.085030     Biso  1.000000 H
   H722       1.0     0.109652      0.511703      0.109861     Biso  1.000000 H
   H723       1.0     0.883637      0.429689      0.123724     Biso  1.000000 H
   H724       1.0     0.947759      0.451684      0.625220     Biso  1.000000 H
   H725       1.0     0.908561      0.453381      0.573886     Biso  1.000000 H
   H726       1.0     0.948601      0.413239      0.590441     Biso  1.000000 H
   H727       1.0     0.365476      0.573637      0.534078     Biso  1.000000 H
   H728       1.0     0.397835      0.619157      0.520124     Biso  1.000000 H
   H729       1.0     0.288194      0.572620      0.574824     Biso  1.000000 H
   H730       1.0     0.301102      0.606908      0.618761     Biso  1.000000 H
   H731       1.0     0.253426      0.620462      0.579670     Biso  1.000000 H
   H732       1.0     0.266957      0.649915      0.503105     Biso  1.000000 H
   H733       1.0     0.277436      0.602528      0.494608     Biso  1.000000 H
   H734       1.0     0.395652      0.644776      0.638198     Biso  1.000000 H
   H735       1.0     0.391985      0.667577      0.467271     Biso  1.000000 H
   H736       1.0     0.341844      0.703963      0.467479     Biso  1.000000 H
   H737       1.0     0.320927      0.576140      0.428391     Biso  1.000000 H
   H738       1.0     0.371620      0.592867      0.460271     Biso  1.000000 H
   H739       1.0     0.355805      0.648208      0.346920     Biso  1.000000 H
   H740       1.0     0.372866      0.607865      0.306026     Biso  1.000000 H
   H741       1.0     0.312891      0.610943      0.337108     Biso  1.000000 H
   H742       1.0     0.404379      0.540597      0.342942     Biso  1.000000 H
   H743       1.0     0.369309      0.686085      0.417423     Biso  1.000000 H
   H744       1.0     0.349876      0.530877      0.357490     Biso  1.000000 H
   H745       1.0     0.442595      0.659839      0.595308     Biso  1.000000 H
   H746       1.0     0.473270      0.594470      0.541549     Biso  1.000000 H
   H747       1.0     0.704869      0.443900      0.452786     Biso  1.000000 H
   H748       1.0     0.644539      0.456259      0.443460     Biso  1.000000 H
   H749       1.0     0.715057      0.422401      0.531379     Biso  1.000000 H
   H750       1.0     0.675180      0.442315      0.568488     Biso  1.000000 H
   H751       1.0     0.650241      0.416991      0.521294     Biso  1.000000 H
   H752       1.0     0.595070      0.497204      0.487390     Biso  1.000000 H
   H753       1.0     0.626798      0.540168      0.508794     Biso  1.000000 H
   H754       1.0     0.453856      0.626364      0.645012     Biso  1.000000 H
   H755       1.0     0.631730      0.545621      0.609048     Biso  1.000000 H
   H756       1.0     0.655392      0.496084      0.606483     Biso  1.000000 H
   H757       1.0     0.521466      0.525741      0.526365     Biso  1.000000 H
   H758       1.0     0.563130      0.562642      0.540583     Biso  1.000000 H
   H759       1.0     0.518113      0.492614      0.637021     Biso  1.000000 H
   H760       1.0     0.462896      0.522227      0.650652     Biso  1.000000 H
   H761       1.0     0.463380      0.489693      0.603148     Biso  1.000000 H
   H762       1.0     0.444223      0.549050      0.544849     Biso  1.000000 H
   H763       1.0     0.600643      0.510423      0.638205     Biso  1.000000 H
   H764       1.0     0.364233      0.516378      0.474043     Biso  1.000000 H
   H765       1.0     0.419711      0.492627      0.477494     Biso  1.000000 H
   H766       1.0     0.417947      0.544526      0.468034     Biso  1.000000 H
   H767       1.0     0.670176      0.340199      0.412272     Biso  1.000000 H
   H768       1.0     0.715087      0.228327      0.401206     Biso  1.000000 H
   H769       1.0     0.762030      0.232538      0.440381     Biso  1.000000 H
   H770       1.0     0.697935      0.236046      0.462109     Biso  1.000000 H
   H771       1.0     0.704480      0.320127      0.501422     Biso  1.000000 H
   H772       1.0     0.741672      0.351842      0.465521     Biso  1.000000 H
   H773       1.0     0.840743      0.325323      0.452624     Biso  1.000000 H
   H774       1.0     0.647224      0.302582      0.451233     Biso  1.000000 H
   H775       1.0     0.866984      0.288745      0.489516     Biso  1.000000 H
   H776       1.0     0.764451      0.348168      0.563418     Biso  1.000000 H
   H777       1.0     0.783710      0.376507      0.522439     Biso  1.000000 H
   H778       1.0     0.836589      0.307558      0.625456     Biso  1.000000 H
   H779       1.0     0.863038      0.289871      0.574132     Biso  1.000000 H
   H780       1.0     0.899732      0.316284      0.610595     Biso  1.000000 H
   H781       1.0     0.804253      0.385490      0.623699     Biso  1.000000 H
   H782       1.0     0.820011      0.418993      0.579558     Biso  1.000000 H
   H783       1.0     0.825592      0.268372      0.446960     Biso  1.000000 H
   H784       1.0     0.692067      0.256365      0.333587     Biso  1.000000 H
   H785       1.0     0.673741      0.309378      0.321903     Biso  1.000000 H
   H786       1.0     0.639962      0.266016      0.299240     Biso  1.000000 H
   H787       1.0     0.345715      0.474077      0.406038     Biso  1.000000 H
   H788       1.0     0.393741      0.447423      0.431308     Biso  1.000000 H
   H789       1.0     0.342490      0.392967      0.392319     Biso  1.000000 H
   H790       1.0     0.307389      0.424039      0.349977     Biso  1.000000 H
   H791       1.0     0.350156      0.380696      0.331633     Biso  1.000000 H
   H792       1.0     0.444215      0.406945      0.401262     Biso  1.000000 H
   H793       1.0     0.473205      0.430414      0.350588     Biso  1.000000 H
   H794       1.0     0.416331      0.376749      0.276036     Biso  1.000000 H
   H795       1.0     0.484194      0.389666      0.279118     Biso  1.000000 H
   H796       1.0     0.455431      0.338168      0.267954     Biso  1.000000 H
   H797       1.0     0.499568      0.353276      0.397397     Biso  1.000000 H
   H798       1.0     0.530352      0.384787      0.358710     Biso  1.000000 H
   H799       1.0     0.481015      0.273509      0.320982     Biso  1.000000 H
   H800       1.0     0.538059      0.250705      0.336296     Biso  1.000000 H
   H801       1.0     0.500077      0.265586      0.381766     Biso  1.000000 H
   H802       1.0     0.566831      0.309855      0.415842     Biso  1.000000 H
   H803       1.0     0.598276      0.347939      0.388889     Biso  1.000000 H
   H804       1.0     0.774016      0.253180      0.813665     Biso  1.000000 H
   H805       1.0     0.969620      0.680958      0.440276     Biso  1.000000 H
   H806       1.0     0.006605      0.677488      0.572245     Biso  1.000000 H
   H807       1.0     0.053476      0.659940      0.530645     Biso  1.000000 H
   H808       1.0     0.892633      0.069796      0.413115     Biso  1.000000 H
   H809       1.0     0.917012      0.072887      0.462770     Biso  1.000000 H
   H810       1.0     0.961508      0.976333      0.367182     Biso  1.000000 H
   H811       1.0     0.908127      0.010009      0.355090     Biso  1.000000 H
   H812       1.0     0.968132      0.029252      0.346762     Biso  1.000000 H
   H813       1.0     0.876901      0.000615      0.443126     Biso  1.000000 H
   H814       1.0     0.918949      0.004336      0.485373     Biso  1.000000 H
   H815       1.0     0.966315      0.096249      0.339902     Biso  1.000000 H
   H816       1.0     0.991182      0.936244      0.478671     Biso  1.000000 H
   H817       1.0     0.989958      0.933006      0.420382     Biso  1.000000 H
   H818       1.0     0.865236      0.900205      0.487976     Biso  1.000000 H
   H819       1.0     0.853763      0.952942      0.502627     Biso  1.000000 H
   H820       1.0     0.971579      0.879528      0.524172     Biso  1.000000 H
   H821       1.0     0.956588      0.874241      0.579526     Biso  1.000000 H
   H822       1.0     0.913485      0.854779      0.536939     Biso  1.000000 H
   H823       1.0     0.831121      0.893676      0.563365     Biso  1.000000 H
   H824       1.0     0.969521      0.889283      0.450284     Biso  1.000000 H
   H825       1.0     0.834769      0.948813      0.574916     Biso  1.000000 H
   H826       1.0     0.023757      0.086134      0.371638     Biso  1.000000 H
   H827       1.0     0.015846      0.093579      0.470146     Biso  1.000000 H
   H828       1.0     0.112654      0.142294      0.658851     Biso  1.000000 H
   H829       1.0     0.144534      0.184557      0.670503     Biso  1.000000 H
   H830       1.0     0.005132      0.198862      0.699442     Biso  1.000000 H
   H831       1.0     0.981552      0.205231      0.641948     Biso  1.000000 H
   H832       1.0     0.001476      0.154173      0.661272     Biso  1.000000 H
   H833       1.0     0.059148      0.146771      0.601113     Biso  1.000000 H
   H834       1.0     0.107141      0.183055      0.578440     Biso  1.000000 H
   H835       1.0     0.005163      0.137823      0.362972     Biso  1.000000 H
   H836       1.0     0.017345      0.256352      0.569174     Biso  1.000000 H
   H837       1.0     0.025430      0.249170      0.511999     Biso  1.000000 H
   H838       1.0     0.064711      0.134927      0.518504     Biso  1.000000 H
   H839       1.0     0.095098      0.184278      0.500669     Biso  1.000000 H
   H840       1.0     0.992946      0.196848      0.400700     Biso  1.000000 H
   H841       1.0     0.973433      0.209640      0.458964     Biso  1.000000 H
   H842       1.0     0.032646      0.226457      0.441734     Biso  1.000000 H
   H843       1.0     0.967826      0.123553      0.487878     Biso  1.000000 H
   H844       1.0     0.078366      0.254018      0.546669     Biso  1.000000 H
   H845       1.0     0.857902      0.977196      0.641804     Biso  1.000000 H
   H846       1.0     0.874378      0.948483      0.693609     Biso  1.000000 H
   H847       1.0     0.917224      0.951458      0.650255     Biso  1.000000 H
   H848       1.0     0.936645      0.750889      0.911157     Biso  1.000000 H
   H849       1.0     0.077493      0.775410      0.894047     Biso  1.000000 H
   H850       1.0     0.066168      0.811408      0.939344     Biso  1.000000 H
   H851       1.0     0.096303      0.765476      0.947374     Biso  1.000000 H
   H852       1.0     0.982312      0.694293      0.923235     Biso  1.000000 H
   H853       1.0     0.035478      0.692947      0.959779     Biso  1.000000 H
   H854       1.0     0.112885      0.667768      0.910423     Biso  1.000000 H
   H855       1.0     0.988448      0.782962      0.879242     Biso  1.000000 H
   H856       1.0     0.121087      0.672440      0.847415     Biso  1.000000 H
   H857       1.0     0.977535      0.642516      0.877474     Biso  1.000000 H
   H858       1.0     0.027341      0.624453      0.913441     Biso  1.000000 H
   H859       1.0     0.953570      0.569238      0.846002     Biso  1.000000 H
   H860       1.0     0.003542      0.538084      0.837976     Biso  1.000000 H
   H861       1.0     0.987508      0.554572      0.893657     Biso  1.000000 H
   H862       1.0     0.099758      0.564895      0.825160     Biso  1.000000 H
   H863       1.0     0.089623      0.561353      0.886456     Biso  1.000000 H
   H864       1.0     0.114984      0.718704      0.887785     Biso  1.000000 H
   H865       1.0     0.873487      0.830387      0.979387     Biso  1.000000 H
   H866       1.0     0.923757      0.798446      0.002444     Biso  1.000000 H
   H867       1.0     0.876308      0.778074      0.965443     Biso  1.000000 H
   H868       1.0     0.780111      0.878298      0.631662     Biso  1.000000 H
   H869       1.0     0.778034      0.927967      0.634255     Biso  1.000000 H
   H870       1.0     0.790001      0.976185      0.724965     Biso  1.000000 H
   H871       1.0     0.742412      0.965693      0.686686     Biso  1.000000 H
   H872       1.0     0.734501      0.955703      0.748854     Biso  1.000000 H
   H873       1.0     0.855844      0.893214      0.735616     Biso  1.000000 H
   H874       1.0     0.818096      0.854016      0.732282     Biso  1.000000 H
   H875       1.0     0.750709      0.907227      0.854562     Biso  1.000000 H
   H876       1.0     0.729622      0.905944      0.792707     Biso  1.000000 H
   H877       1.0     0.749210      0.855914      0.822570     Biso  1.000000 H
   H878       1.0     0.887504      0.863577      0.800585     Biso  1.000000 H
   H879       1.0     0.834822      0.831658      0.813886     Biso  1.000000 H
   H880       1.0     0.887289      0.896509      0.937587     Biso  1.000000 H
   H881       1.0     0.904683      0.912677      0.880110     Biso  1.000000 H
   H882       1.0     0.843054      0.918472      0.901195     Biso  1.000000 H
   H883       1.0     0.938431      0.837258      0.854573     Biso  1.000000 H
   H884       1.0     0.894574      0.798295      0.861816     Biso  1.000000 H
   H885       1.0     0.137827      0.225412      0.749873     Biso  1.000000 H
   H886       1.0     0.685742      0.567757      0.396360     Biso  1.000000 H
   H887       1.0     0.100396      0.206737      0.788543     Biso  1.000000 H
   H888       1.0     0.185974      0.158406      0.725267     Biso  1.000000 H
   H889       1.0     0.649848      0.780198      0.640219     Biso  1.000000 H
   H890       1.0     0.586951      0.761617      0.522861     Biso  1.000000 H
   H891       1.0     0.604748      0.811235      0.531587     Biso  1.000000 H
   H892       1.0     0.517403      0.750027      0.643037     Biso  1.000000 H
   H893       1.0     0.557685      0.719391      0.608560     Biso  1.000000 H
   H894       1.0     0.583069      0.748762      0.652634     Biso  1.000000 H
   H895       1.0     0.509027      0.826920      0.551912     Biso  1.000000 H
   H896       1.0     0.676505      0.818583      0.608637     Biso  1.000000 H
   H897       1.0     0.472533      0.794392      0.590634     Biso  1.000000 H
   H898       1.0     0.475554      0.713248      0.562082     Biso  1.000000 H
   H899       1.0     0.460951      0.698140      0.505487     Biso  1.000000 H
   H900       1.0     0.409077      0.773304      0.553796     Biso  1.000000 H
   H901       1.0     0.408378      0.749810      0.497767     Biso  1.000000 H
   H902       1.0     0.414904      0.886591      0.494773     Biso  1.000000 H
   H903       1.0     0.430254      0.861098      0.544652     Biso  1.000000 H
   H904       1.0     0.466253      0.855613      0.493581     Biso  1.000000 H
   H905       1.0     0.528286      0.709777      0.525950     Biso  1.000000 H
   H906       1.0     0.347769      0.821407      0.550542     Biso  1.000000 H
   H907       1.0     0.707300      0.767619      0.620761     Biso  1.000000 H
   H908       1.0     0.667416      0.776414      0.488901     Biso  1.000000 H
   H909       1.0     0.018240      0.704020      0.520767     Biso  1.000000 H
   H910       1.0     0.899864      0.666425      0.484592     Biso  1.000000 H
   H911       1.0     0.932525      0.703916      0.513303     Biso  1.000000 H
   H912       1.0     0.832216      0.625533      0.588695     Biso  1.000000 H
   H913       1.0     0.857377      0.605778      0.535986     Biso  1.000000 H
   H914       1.0     0.893369      0.607667      0.586923     Biso  1.000000 H
   H915       1.0     0.846875      0.728578      0.564458     Biso  1.000000 H
   H916       1.0     0.683759      0.815985      0.522014     Biso  1.000000 H
   H917       1.0     0.810899      0.688950      0.568657     Biso  1.000000 H
   H918       1.0     0.829176      0.649507      0.454167     Biso  1.000000 H
   H919       1.0     0.789204      0.637857      0.499900     Biso  1.000000 H
   H920       1.0     0.740071      0.706012      0.531850     Biso  1.000000 H
   H921       1.0     0.737141      0.719793      0.470754     Biso  1.000000 H
   H922       1.0     0.774012      0.755640      0.586298     Biso  1.000000 H
   H923       1.0     0.816877      0.788180      0.556790     Biso  1.000000 H
   H924       1.0     0.767895      0.811404      0.581118     Biso  1.000000 H
   H925       1.0     0.769375      0.662082      0.452055     Biso  1.000000 H
   H926       1.0     0.327290      0.789153      0.506527     Biso  1.000000 H
   H927       1.0     0.307993      0.847992      0.415881     Biso  1.000000 H
   H928       1.0     0.266840      0.805967      0.438160     Biso  1.000000 H
   H929       1.0     0.201076      0.035797      0.666708     Biso  1.000000 H
   H930       1.0     0.225334      0.993492      0.643540     Biso  1.000000 H
   H931       1.0     0.260967      0.942127      0.735978     Biso  1.000000 H
   H932       1.0     0.270257      0.979690      0.782867     Biso  1.000000 H
   H933       1.0     0.209848      0.962631      0.767830     Biso  1.000000 H
   H934       1.0     0.181730      0.050293      0.748102     Biso  1.000000 H
   H935       1.0     0.228061      0.075074      0.726694     Biso  1.000000 H
   H936       1.0     0.128990      0.993505      0.746514     Biso  1.000000 H
   H937       1.0     0.316875      0.073499      0.765349     Biso  1.000000 H
   H938       1.0     0.313850      0.023824      0.794127     Biso  1.000000 H
   H939       1.0     0.251629      0.125837      0.766045     Biso  1.000000 H
   H940       1.0     0.258041      0.124011      0.826759     Biso  1.000000 H
   H941       1.0     0.154797      0.106547      0.862005     Biso  1.000000 H
   H942       1.0     0.104860      0.133276      0.835063     Biso  1.000000 H
   H943       1.0     0.126449      0.083457      0.808900     Biso  1.000000 H
   H944       1.0     0.153045      0.112383      0.731034     Biso  1.000000 H
   H945       1.0     0.319994      0.072209      0.830062     Biso  1.000000 H
   H946       1.0     0.082142      0.984578      0.710220     Biso  1.000000 H
   H947       1.0     0.109845      0.032942      0.707718     Biso  1.000000 H
   H948       1.0     0.196031      0.927662      0.696789     Biso  1.000000 H
   H949       1.0     0.247361      0.853953      0.435110     Biso  1.000000 H
   H950       1.0     0.267753      0.859400      0.561439     Biso  1.000000 H
   H951       1.0     0.255869      0.814831      0.537431     Biso  1.000000 H
   H952       1.0     0.210637      0.908598      0.463912     Biso  1.000000 H
   H953       1.0     0.163762      0.923100      0.505779     Biso  1.000000 H
   H954       1.0     0.227192      0.930088      0.520482     Biso  1.000000 H
   H955       1.0     0.157146      0.899151      0.577818     Biso  1.000000 H
   H956       1.0     0.214198      0.882820      0.596510     Biso  1.000000 H
   H957       1.0     0.228661      0.810175      0.628773     Biso  1.000000 H
   H958       1.0     0.174982      0.783113      0.644713     Biso  1.000000 H
   H959       1.0     0.189577      0.782928      0.586319     Biso  1.000000 H
   H960       1.0     0.181247      0.854358      0.680863     Biso  1.000000 H
   H961       1.0     0.117669      0.837029      0.681928     Biso  1.000000 H
   H962       1.0     0.047638      0.937750      0.661729     Biso  1.000000 H
   H963       1.0     0.083097      0.927421      0.612376     Biso  1.000000 H
   H964       1.0     0.045270      0.888938      0.639804     Biso  1.000000 H
   H965       1.0     0.189947      0.930499      0.641635     Biso  1.000000 H
   H966       1.0     0.068702      0.224126      0.740466     Biso  1.000000 H
   H967       1.0     0.671977      0.552935      0.450238     Biso  1.000000 H
   H968       1.0     0.961527      0.628218      0.432608     Biso  1.000000 H
   H969       1.0     0.638421      0.469766      0.371164     Biso  1.000000 H
   H970       1.0     0.272357      0.695395      0.037762     Biso  1.000000 H
   H971       1.0     0.261175      0.731449      0.078125     Biso  1.000000 H
   H972       1.0     0.180555      0.748119      0.973308     Biso  1.000000 H
   H973       1.0     0.246425      0.756248      0.993015     Biso  1.000000 H
   H974       1.0     0.229413      0.709897      0.962509     Biso  1.000000 H
   H975       1.0     0.151051      0.734740      0.097013     Biso  1.000000 H
   H976       1.0     0.124198      0.749114      0.044463     Biso  1.000000 H
   H977       1.0     0.166689      0.665669      0.120618     Biso  1.000000 H
   H978       1.0     0.189162      0.852589      0.032680     Biso  1.000000 H
   H979       1.0     0.163169      0.809660      0.000960     Biso  1.000000 H
   H980       1.0     0.105627      0.788167      0.112623     Biso  1.000000 H
   H981       1.0     0.099535      0.816487      0.059883     Biso  1.000000 H
   H982       1.0     0.178720      0.894865      0.097038     Biso  1.000000 H
   H983       1.0     0.133563      0.889964      0.056077     Biso  1.000000 H
   H984       1.0     0.116449      0.920389      0.096240     Biso  1.000000 H
   H985       1.0     0.175533      0.853216      0.164034     Biso  1.000000 H
   H986       1.0     0.226128      0.813595      0.016849     Biso  1.000000 H
   H987       1.0     0.126449      0.823450      0.185281     Biso  1.000000 H
   H988       1.0     0.194509      0.705658      0.149644     Biso  1.000000 H
   H989       1.0     0.295611      0.711801      0.146784     Biso  1.000000 H
   H990       1.0     0.495263      0.767026      0.254172     Biso  1.000000 H
   H991       1.0     0.500810      0.714289      0.279115     Biso  1.000000 H
   H992       1.0     0.499738      0.734263      0.131965     Biso  1.000000 H
   H993       1.0     0.492396      0.782504      0.165707     Biso  1.000000 H
   H994       1.0     0.552454      0.762326      0.157632     Biso  1.000000 H
   H995       1.0     0.430046      0.734602      0.230019     Biso  1.000000 H
   H996       1.0     0.448641      0.684087      0.236720     Biso  1.000000 H
   H997       1.0     0.206615      0.653564      0.165704     Biso  1.000000 H
   H998       1.0     0.412506      0.653454      0.107071     Biso  1.000000 H
   H999       1.0     0.445948      0.629536      0.148411     Biso  1.000000 H
   H1000      1.0     0.358935      0.693280      0.229330     Biso  1.000000 H
   H1001      1.0     0.386302      0.645048      0.216637     Biso  1.000000 H
   H1002      1.0     0.302877      0.588107      0.160538     Biso  1.000000 H
   H1003      1.0     0.349702      0.605722      0.123633     Biso  1.000000 H
   H1004      1.0     0.364177      0.591091      0.181802     Biso  1.000000 H
   H1005      1.0     0.330334      0.677915      0.109007     Biso  1.000000 H
   H1006      1.0     0.472352      0.671386      0.120350     Biso  1.000000 H
   H1007      1.0     0.542534      0.753632      0.340826     Biso  1.000000 H
   H1008      1.0     0.056826      0.857245      0.237701     Biso  1.000000 H
   H1009      1.0     0.047011      0.903870      0.197552     Biso  1.000000 H
   H1010      1.0     0.342131      0.982062      0.157048     Biso  1.000000 H
   H1011      1.0     0.392306      0.957444      0.186792     Biso  1.000000 H
   H1012      1.0     0.357572      0.047535      0.103071     Biso  1.000000 H
   H1013      1.0     0.402514      0.067220      0.140820     Biso  1.000000 H
   H1014      1.0     0.413635      0.055555      0.081948     Biso  1.000000 H
   H1015      1.0     0.414322      0.987518      0.054440     Biso  1.000000 H
   H1016      1.0     0.355850      0.979150      0.076203     Biso  1.000000 H
   H1017      1.0     0.446681      0.010659      0.242522     Biso  1.000000 H
   H1018      1.0     0.319103      0.915419      0.101472     Biso  1.000000 H
   H1019      1.0     0.361828      0.908454      0.141319     Biso  1.000000 H
   H1020      1.0     0.409560      0.884407      0.016631     Biso  1.000000 H
   H1021      1.0     0.419152      0.939438      0.002877     Biso  1.000000 H
   H1022      1.0     0.327468      0.850998      0.992249     Biso  1.000000 H
   H1023      1.0     0.289384      0.878916      0.035298     Biso  1.000000 H
   H1024      1.0     0.271307      0.878904      0.978730     Biso  1.000000 H
   H1025      1.0     0.389078      0.888433      0.934783     Biso  1.000000 H
   H1026      1.0     0.349298      0.869428      0.103725     Biso  1.000000 H
   H1027      1.0     0.060443      0.908353      0.254094     Biso  1.000000 H
   H1028      1.0     0.413423      0.046051      0.276265     Biso  1.000000 H
   H1029      1.0     0.298349      0.987045      0.240656     Biso  1.000000 H
   H1030      1.0     0.193572      0.856222      0.239792     Biso  1.000000 H
   H1031      1.0     0.136947      0.841598      0.260785     Biso  1.000000 H
   H1032      1.0     0.099188      0.906731      0.320697     Biso  1.000000 H
   H1033      1.0     0.139473      0.937969      0.346238     Biso  1.000000 H
   H1034      1.0     0.129096      0.947360      0.289278     Biso  1.000000 H
   H1035      1.0     0.235946      0.929887      0.257369     Biso  1.000000 H
   H1036      1.0     0.251987      0.890444      0.290290     Biso  1.000000 H
   H1037      1.0     0.439260      0.058507      0.214339     Biso  1.000000 H
   H1038      1.0     0.202601      0.933887      0.386601     Biso  1.000000 H
   H1039      1.0     0.252543      0.960940      0.408150     Biso  1.000000 H
   H1040      1.0     0.320466      0.914534      0.340967     Biso  1.000000 H
   H1041      1.0     0.323759      0.971824      0.354816     Biso  1.000000 H
   H1042      1.0     0.403443      0.990022      0.315511     Biso  1.000000 H
   H1043      1.0     0.403125      0.940307      0.338257     Biso  1.000000 H
   H1044      1.0     0.432497      0.946234      0.281641     Biso  1.000000 H
   H1045      1.0     0.322000      0.017386      0.283732     Biso  1.000000 H
   H1046      1.0     0.257444      0.905589      0.390414     Biso  1.000000 H
   H1047      1.0     0.550370      0.804910      0.314734     Biso  1.000000 H
   H1048      1.0     0.603200      0.779209      0.334849     Biso  1.000000 H
   H1049      1.0     0.568953      0.801841      0.217196     Biso  1.000000 H
   H1050      1.0     0.476702      0.181800      0.899603     Biso  1.000000 H
   H1051      1.0     0.523396      0.162848      0.013700     Biso  1.000000 H
   H1052      1.0     0.474327      0.141255      0.974436     Biso  1.000000 H
   H1053      1.0     0.533010      0.150775      0.955783     Biso  1.000000 H
   H1054      1.0     0.416550      0.212617      0.951376     Biso  1.000000 H
   H1055      1.0     0.440016      0.258414      0.975852     Biso  1.000000 H
   H1056      1.0     0.478451      0.192653      0.071564     Biso  1.000000 H
   H1057      1.0     0.535144      0.200581      0.907833     Biso  1.000000 H
   H1058      1.0     0.462334      0.246858      0.066967     Biso  1.000000 H
   H1059      1.0     0.377398      0.269047      0.051379     Biso  1.000000 H
   H1060      1.0     0.349540      0.225133      0.073634     Biso  1.000000 H
   H1061      1.0     0.282160      0.288080      0.952972     Biso  1.000000 H
   H1062      1.0     0.329692      0.310369      0.986412     Biso  1.000000 H
   H1063      1.0     0.348581      0.272370      0.950136     Biso  1.000000 H
   H1064      1.0     0.237139      0.278090      0.021568     Biso  1.000000 H
   H1065      1.0     0.283916      0.295604      0.057810     Biso  1.000000 H
   H1066      1.0     0.429899      0.212263      0.105254     Biso  1.000000 H
   H1067      1.0     0.584530      0.201695      0.198965     Biso  1.000000 H
   H1068      1.0     0.548829      0.221183      0.834465     Biso  1.000000 H
   H1069      1.0     0.489708      0.202564      0.815106     Biso  1.000000 H
   H1070      1.0     0.625299      0.535998      0.405785     Biso  1.000000 H
   H1071      1.0     0.756200      0.323867      0.809592     Biso  1.000000 H
   H1072      1.0     0.782750      0.335392      0.752656     Biso  1.000000 H
   H1073      1.0     0.749179      0.374361      0.784160     Biso  1.000000 H
   H1074      1.0     0.673254      0.285225      0.815303     Biso  1.000000 H
   H1075      1.0     0.631665      0.289667      0.763540     Biso  1.000000 H
   H1076      1.0     0.576815      0.364731      0.757689     Biso  1.000000 H
   H1077      1.0     0.507724      0.252716      0.803956     Biso  1.000000 H
   H1078      1.0     0.575331      0.392898      0.810295     Biso  1.000000 H
   H1079      1.0     0.604499      0.292808      0.867326     Biso  1.000000 H
   H1080      1.0     0.572797      0.287901      0.814867     Biso  1.000000 H
   H1081      1.0     0.510847      0.368371      0.924296     Biso  1.000000 H
   H1082      1.0     0.576169      0.353929      0.924975     Biso  1.000000 H
   H1083      1.0     0.558968      0.389782      0.885146     Biso  1.000000 H
   H1084      1.0     0.487653      0.301772      0.925277     Biso  1.000000 H
   H1085      1.0     0.545582      0.277801      0.907657     Biso  1.000000 H
   H1086      1.0     0.623226      0.396744      0.770304     Biso  1.000000 H
   H1087      1.0     0.931079      0.688652      0.218398     Biso  1.000000 H
   H1088      1.0     0.617776      0.214255      0.099234     Biso  1.000000 H
   H1089      1.0     0.572869      0.246280      0.128401     Biso  1.000000 H
   H1090      1.0     0.788271      0.929187      0.182547     Biso  1.000000 H
   H1091      1.0     0.796655      0.929225      0.244350     Biso  1.000000 H
   H1092      1.0     0.881848      0.860364      0.161258     Biso  1.000000 H
   H1093      1.0     0.837389      0.822759      0.167116     Biso  1.000000 H
   H1094      1.0     0.824697      0.865123      0.130738     Biso  1.000000 H
   H1095      1.0     0.749059      0.864737      0.256255     Biso  1.000000 H
   H1096      1.0     0.766037      0.818841      0.218683     Biso  1.000000 H
   H1097      1.0     0.918251      0.919969      0.244132     Biso  1.000000 H
   H1098      1.0     0.689677      0.862061      0.112872     Biso  1.000000 H
   H1099      1.0     0.747050      0.835376      0.121433     Biso  1.000000 H
   H1100      1.0     0.689095      0.797982      0.173403     Biso  1.000000 H
   H1101      1.0     0.642379      0.831338      0.175030     Biso  1.000000 H
   H1102      1.0     0.712232      0.762841      0.253346     Biso  1.000000 H
   H1103      1.0     0.724230      0.805270      0.287292     Biso  1.000000 H
   H1104      1.0     0.677245      0.765457      0.304054     Biso  1.000000 H
   H1105      1.0     0.610632      0.759314      0.205982     Biso  1.000000 H
   H1106      1.0     0.748330      0.887997      0.125453     Biso  1.000000 H
   H1107      1.0     0.874423      0.949092      0.279238     Biso  1.000000 H
   H1108      1.0     0.921721      0.976276      0.247442     Biso  1.000000 H
   H1109      1.0     0.810434      0.998337      0.243830     Biso  1.000000 H
   H1110      1.0     0.638312      0.245678      0.150273     Biso  1.000000 H
   H1111      1.0     0.676569      0.186936      0.175128     Biso  1.000000 H
   H1112      1.0     0.654357      0.150718      0.137731     Biso  1.000000 H
   H1113      1.0     0.662291      0.124287      0.292307     Biso  1.000000 H
   H1114      1.0     0.692014      0.169952      0.263027     Biso  1.000000 H
   H1115      1.0     0.622210      0.162102      0.264826     Biso  1.000000 H
   H1116      1.0     0.737839      0.137475      0.181601     Biso  1.000000 H
   H1117      1.0     0.707395      0.098414      0.155650     Biso  1.000000 H
   H1118      1.0     0.731960      0.009834      0.238551     Biso  1.000000 H
   H1119      1.0     0.680459      0.039700      0.236144     Biso  1.000000 H
   H1120      1.0     0.709045      0.025525      0.182368     Biso  1.000000 H
   H1121      1.0     0.802972      0.102242      0.167496     Biso  1.000000 H
   H1122      1.0     0.777671      0.055200      0.152842     Biso  1.000000 H
   H1123      1.0     0.857638      0.028942      0.119872     Biso  1.000000 H
   H1124      1.0     0.881972      0.074719      0.140395     Biso  1.000000 H
   H1125      1.0     0.915000      0.032951      0.151110     Biso  1.000000 H
   H1126      1.0     0.791844      0.992645      0.190520     Biso  1.000000 H
   H1127      1.0     0.386393      0.943633      0.928686     Biso  1.000000 H
   H1128      1.0     0.255718      0.942073      0.915522     Biso  1.000000 H
   H1129      1.0     0.749557      0.288826      0.698149     Biso  1.000000 H
   H1130      1.0     0.263803      0.947461      0.856741     Biso  1.000000 H
   H1131      1.0     0.281382      0.352843      0.654964     Biso  1.000000 H
   H1132      1.0     0.166474      0.372365      0.647314     Biso  1.000000 H
   H1133      1.0     0.220814      0.376711      0.607998     Biso  1.000000 H
   H1134      1.0     0.152146      0.375111      0.540639     Biso  1.000000 H
   H1135      1.0     0.115143      0.368901      0.586519     Biso  1.000000 H
   H1136      1.0     0.098391      0.410606      0.550471     Biso  1.000000 H
   H1137      1.0     0.227385      0.434757      0.555897     Biso  1.000000 H
   H1138      1.0     0.233597      0.335812      0.692699     Biso  1.000000 H
   H1139      1.0     0.212446      0.475031      0.593203     Biso  1.000000 H
   H1140      1.0     0.212374      0.530890      0.484121     Biso  1.000000 H
   H1141      1.0     0.232392      0.530545      0.543584     Biso  1.000000 H
   H1142      1.0     0.128484      0.435431      0.488771     Biso  1.000000 H
   H1143      1.0     0.193176      0.426702      0.482410     Biso  1.000000 H
   H1144      1.0     0.085794      0.496225      0.452986     Biso  1.000000 H
   H1145      1.0     0.132291      0.535499      0.454139     Biso  1.000000 H
   H1146      1.0     0.105290      0.522854      0.399502     Biso  1.000000 H
   H1147      1.0     0.256145      0.488570      0.502848     Biso  1.000000 H
   H1148      1.0     0.112016      0.454094      0.368349     Biso  1.000000 H
   H1149      1.0     0.283840      0.363931      0.713024     Biso  1.000000 H
   H1150      1.0     0.173879      0.445261      0.713752     Biso  1.000000 H
   H1151      1.0     0.079774      0.265486      0.012854     Biso  1.000000 H
   H1152      1.0     0.135535      0.316058      0.916256     Biso  1.000000 H
   H1153      1.0     0.178150      0.342652      0.946341     Biso  1.000000 H
   H1154      1.0     0.048635      0.401162      0.882841     Biso  1.000000 H
   H1155      1.0     0.058476      0.347738      0.881013     Biso  1.000000 H
   H1156      1.0     0.038337      0.368989      0.925600     Biso  1.000000 H
   H1157      1.0     0.170488      0.367533      0.861225     Biso  1.000000 H
   H1158      1.0     0.162161      0.397501      0.720319     Biso  1.000000 H
   H1159      1.0     0.184630      0.408137      0.893752     Biso  1.000000 H
   H1160      1.0     0.144281      0.478074      0.881677     Biso  1.000000 H
   H1161      1.0     0.111079      0.491491      0.830353     Biso  1.000000 H
   H1162      1.0     0.212223      0.455459      0.834873     Biso  1.000000 H
   H1163      1.0     0.176164      0.470293      0.787499     Biso  1.000000 H
   H1164      1.0     0.299191      0.435748      0.747821     Biso  1.000000 H
   H1165      1.0     0.260839      0.479524      0.765009     Biso  1.000000 H
   H1166      1.0     0.285011      0.442246      0.804795     Biso  1.000000 H
   H1167      1.0     0.081183      0.462295      0.877253     Biso  1.000000 H
   H1168      1.0     0.087753      0.436372      0.419265     Biso  1.000000 H
   H1169      1.0     0.069559      0.376152      0.389282     Biso  1.000000 H
   H1170      1.0     0.077727      0.393645      0.331268     Biso  1.000000 H
   H1171      1.0     0.502638      0.396227      0.199808     Biso  1.000000 H
   H1172      1.0     0.479512      0.438594      0.221782     Biso  1.000000 H
   H1173      1.0     0.570018      0.400619      0.132091     Biso  1.000000 H
   H1174      1.0     0.547806      0.445092      0.102017     Biso  1.000000 H
   H1175      1.0     0.601474      0.451016      0.127350     Biso  1.000000 H
   H1176      1.0     0.582132      0.414905      0.231407     Biso  1.000000 H
   H1177      1.0     0.559765      0.455496      0.256582     Biso  1.000000 H
   H1178      1.0     0.397937      0.460519      0.107545     Biso  1.000000 H
   H1179      1.0     0.678129      0.517850      0.215653     Biso  1.000000 H
   H1180      1.0     0.613687      0.531985      0.216672     Biso  1.000000 H
   H1181      1.0     0.638663      0.434440      0.299409     Biso  1.000000 H
   H1182      1.0     0.611885      0.484673      0.298917     Biso  1.000000 H
   H1183      1.0     0.773559      0.466522      0.320975     Biso  1.000000 H
   H1184      1.0     0.732730      0.434775      0.286635     Biso  1.000000 H
   H1185      1.0     0.761165      0.482637      0.268316     Biso  1.000000 H
   H1186      1.0     0.298303      0.978579      0.894904     Biso  1.000000 H
   H1187      1.0     0.640562      0.506909      0.167524     Biso  1.000000 H
   H1188      1.0     0.454445      0.482677      0.113944     Biso  1.000000 H
   H1189      1.0     0.417619      0.485636      0.159055     Biso  1.000000 H
   H1190      1.0     0.391003      0.428353      0.203125     Biso  1.000000 H
   H1191      1.0     0.101658      0.340600      0.347324     Biso  1.000000 H
   H1192      1.0     0.222011      0.402816      0.355666     Biso  1.000000 H
   H1193      1.0     0.182765      0.430552      0.322447     Biso  1.000000 H
   H1194      1.0     0.238423      0.330751      0.341796     Biso  1.000000 H
   H1195      1.0     0.170945      0.317862      0.342734     Biso  1.000000 H
   H1196      1.0     0.205985      0.302688      0.295603     Biso  1.000000 H
   H1197      1.0     0.269086      0.388006      0.288677     Biso  1.000000 H
   H1198      1.0     0.230149      0.423866      0.258947     Biso  1.000000 H
   H1199      1.0     0.228767      0.428036      0.175480     Biso  1.000000 H
   H1200      1.0     0.236316      0.381631      0.142208     Biso  1.000000 H
   H1201      1.0     0.185064      0.385280      0.177978     Biso  1.000000 H
   H1202      1.0     0.332800      0.378662      0.239848     Biso  1.000000 H
   H1203      1.0     0.312842      0.423922      0.216546     Biso  1.000000 H
   H1204      1.0     0.383281      0.337921      0.124121     Biso  1.000000 H
   H1205      1.0     0.366341      0.316146      0.179925     Biso  1.000000 H
   H1206      1.0     0.321599      0.327033      0.134410     Biso  1.000000 H
   H1207      1.0     0.415942      0.382151      0.207023     Biso  1.000000 H
   H1208      1.0     0.138223      0.257843      0.978755     Biso  1.000000 H
   H1209      1.0     0.079797      0.269486      0.955288     Biso  1.000000 H
   H1210      1.0     0.690220      0.440502      0.370566     Biso  1.000000 H
   H1211      1.0     0.309915      0.678637      0.790275     Biso  1.000000 H
   H1212      1.0     0.661275      0.719906      0.045935     Biso  1.000000 H
   H1213      1.0     0.321592      0.647424      0.742838     Biso  1.000000 H
   H1214      1.0     0.187436      0.618432      0.821776     Biso  1.000000 H
   H1215      1.0     0.214455      0.670030      0.829605     Biso  1.000000 H
   H1216      1.0     0.180880      0.658553      0.780376     Biso  1.000000 H
   H1217      1.0     0.332003      0.614181      0.808383     Biso  1.000000 H
   H1218      1.0     0.304281      0.568889      0.789597     Biso  1.000000 H
   H1219      1.0     0.216317      0.707725      0.669653     Biso  1.000000 H
   H1220      1.0     0.217231      0.553499      0.829865     Biso  1.000000 H
   H1221      1.0     0.215006      0.552564      0.890631     Biso  1.000000 H
   H1222      1.0     0.343921      0.533792      0.851052     Biso  1.000000 H
   H1223      1.0     0.344332      0.563427      0.998115     Biso  1.000000 H
   H1224      1.0     0.344506      0.604539      0.962952     Biso  1.000000 H
   H1225      1.0     0.286812      0.572036      0.969200     Biso  1.000000 H
   H1226      1.0     0.421501      0.572852      0.919893     Biso  1.000000 H
   H1227      1.0     0.416561      0.520639      0.900376     Biso  1.000000 H
   H1228      1.0     0.252731      0.518377      0.858540     Biso  1.000000 H
   H1229      1.0     0.451216      0.493681      0.030466     Biso  1.000000 H
   H1230      1.0     0.201166      0.668643      0.701895     Biso  1.000000 H
   H1231      1.0     0.298594      0.739512      0.672074     Biso  1.000000 H
   H1232      1.0     0.375305      0.950931      0.851677     Biso  1.000000 H
   H1233      1.0     0.330134      0.930634      0.814814     Biso  1.000000 H
   H1234      1.0     0.443479      0.943265      0.801703     Biso  1.000000 H
   H1235      1.0     0.457787      0.905734      0.760461     Biso  1.000000 H
   H1236      1.0     0.400897      0.938785      0.757741     Biso  1.000000 H
   H1237      1.0     0.326361      0.864678      0.781644     Biso  1.000000 H
   H1238      1.0     0.358320      0.830026      0.818075     Biso  1.000000 H
   H1239      1.0     0.256519      0.664687      0.662291     Biso  1.000000 H
   H1240      1.0     0.439767      0.793642      0.793701     Biso  1.000000 H
   H1241      1.0     0.465762      0.837823      0.765135     Biso  1.000000 H
   H1242      1.0     0.315833      0.798829      0.722291     Biso  1.000000 H
   H1243      1.0     0.331199      0.778133      0.774595     Biso  1.000000 H
   H1244      1.0     0.391589      0.734703      0.639136     Biso  1.000000 H
   H1245      1.0     0.362410      0.783608      0.646186     Biso  1.000000 H
   H1246      1.0     0.421916      0.770528      0.668504     Biso  1.000000 H
   H1247      1.0     0.329431      0.694347      0.675304     Biso  1.000000 H
   H1248      1.0     0.460238      0.793068      0.732296     Biso  1.000000 H
   H1249      1.0     0.390441      0.509312      0.032870     Biso  1.000000 H
   H1250      1.0     0.367119      0.578792      0.864086     Biso  1.000000 H
   H1251      1.0     0.515704      0.521060      0.001225     Biso  1.000000 H
   H1252      1.0     0.733644      0.594351      0.016062     Biso  1.000000 H
   H1253      1.0     0.886549      0.637719      0.045549     Biso  1.000000 H
   H1254      1.0     0.865190      0.592889      0.069413     Biso  1.000000 H
   H1255      1.0     0.876731      0.600830      0.005418     Biso  1.000000 H
   H1256      1.0     0.771667      0.618009      0.096788     Biso  1.000000 H
   H1257      1.0     0.406063      0.474909      0.991599     Biso  1.000000 H
   H1258      1.0     0.746797      0.654085      0.167598     Biso  1.000000 H
   H1259      1.0     0.773865      0.568924      0.049566     Biso  1.000000 H
   H1260      1.0     0.752514      0.706941      0.166076     Biso  1.000000 H
   H1261      1.0     0.872969      0.666111      0.109105     Biso  1.000000 H
   H1262      1.0     0.837310      0.631572      0.148836     Biso  1.000000 H
   H1263      1.0     0.820464      0.755194      0.165240     Biso  1.000000 H
   H1264      1.0     0.874646      0.759882      0.200001     Biso  1.000000 H
   H1265      1.0     0.886209      0.752364      0.144264     Biso  1.000000 H
   H1266      1.0     0.938537      0.691924      0.154079     Biso  1.000000 H
   H1267      1.0     0.922072      0.646978      0.179106     Biso  1.000000 H
   H1268      1.0     0.713547      0.687290      0.127435     Biso  1.000000 H
   H1269      1.0     0.824626      0.585566      0.928914     Biso  1.000000 H
   H1270      1.0     0.739248      0.648842      0.065140     Biso  1.000000 H
   H1271      1.0     0.786980      0.552106      0.899996     Biso  1.000000 H
   H1272      1.0     0.762986      0.599095      0.917989     Biso  1.000000 H
   H1273      1.0     0.474943      0.436147      0.969790     Biso  1.000000 H
   H1274      1.0     0.435832      0.461495      0.929079     Biso  1.000000 H
   H1275      1.0     0.485346      0.430584      0.906213     Biso  1.000000 H
   H1276      1.0     0.583227      0.454238      0.932874     Biso  1.000000 H
   H1277      1.0     0.556959      0.460225      0.988095     Biso  1.000000 H
   H1278      1.0     0.578665      0.570182      0.995166     Biso  1.000000 H
   H1279      1.0     0.599016      0.535364      0.038521     Biso  1.000000 H
   H1280      1.0     0.519529      0.554334      0.958443     Biso  1.000000 H
   H1281      1.0     0.663911      0.453664      0.962323     Biso  1.000000 H
   H1282      1.0     0.643342      0.460645      0.015577     Biso  1.000000 H
   H1283      1.0     0.693192      0.487013      0.088035     Biso  1.000000 H
   H1284      1.0     0.749988      0.511138      0.077710     Biso  1.000000 H
   H1285      1.0     0.690421      0.536503      0.066226     Biso  1.000000 H
   H1286      1.0     0.707353      0.551121      0.966561     Biso  1.000000 H
   H1287      1.0     0.733096      0.510972      0.936585     Biso  1.000000 H
   H1288      1.0     0.641809      0.563628      0.003510     Biso  1.000000 H
   O1         1.0     0.450937      0.618485      0.428999     Biso  1.000000 O
   O2         1.0     0.485021      0.514684      0.354718     Biso  1.000000 O
   O3         1.0     0.347807      0.478620      0.300006     Biso  1.000000 O
   O4         1.0     0.388432      0.309450      0.325758     Biso  1.000000 O
   O5         1.0     0.548365      0.301361      0.257296     Biso  1.000000 O
   O6         1.0     0.607947      0.213734      0.366195     Biso  1.000000 O
   O7         1.0     0.755777      0.349266      0.381379     Biso  1.000000 O
   O8         1.0     0.944492      0.529704      0.685449     Biso  1.000000 O
   O9         1.0     0.925917      0.338868      0.526765     Biso  1.000000 O
   O10        1.0     0.860644      0.356138      0.688970     Biso  1.000000 O
   O11        1.0     0.806349      0.471592      0.819361     Biso  1.000000 O
   O12        1.0     0.676135      0.556766      0.747199     Biso  1.000000 O
   O13        1.0     0.799000      0.697004      0.800835     Biso  1.000000 O
   O14        1.0     0.609763      0.768789      0.793613     Biso  1.000000 O
   O15        1.0     0.248468      0.619235      0.404653     Biso  1.000000 O
   O16        1.0     0.735604      0.274660      0.559664     Biso  1.000000 O
   O17        1.0     0.287892      0.690026      0.578388     Biso  1.000000 O
   O18        1.0     0.790084      0.212498      0.962414     Biso  1.000000 O
   O19        1.0     0.561548      0.607300      0.615019     Biso  1.000000 O
   O20        1.0     0.509594      0.715714      0.912580     Biso  1.000000 O
   O21        1.0     0.275495      0.371421      0.812365     Biso  1.000000 O
   O22        1.0     0.300924      0.423066      0.631634     Biso  1.000000 O
   O23        1.0     0.080994      0.424114      0.645058     Biso  1.000000 O
   O24        1.0     0.138053      0.542602      0.559208     Biso  1.000000 O
   O25        1.0     0.195815      0.506018      0.366873     Biso  1.000000 O
   O26        1.0     0.212110      0.366325      0.429825     Biso  1.000000 O
   O27        1.0     0.138491      0.407073      0.246996     Biso  1.000000 O
   O28        1.0     0.220939      0.310758      0.177409     Biso  1.000000 O
   O29        1.0     0.331576      0.393262      0.079899     Biso  1.000000 O
   O30        1.0     0.447587      0.393456      0.072453     Biso  1.000000 O
   O31        1.0     0.501207      0.512284      0.212884     Biso  1.000000 O
   O32        1.0     0.705250      0.447301      0.178186     Biso  1.000000 O
   O33        1.0     0.737137      0.554139      0.304076     Biso  1.000000 O
   O34        1.0     0.779208      0.475147      0.412198     Biso  1.000000 O
   O35        1.0     0.765939      0.489235      0.522675     Biso  1.000000 O
   O36        1.0     0.542066      0.443303      0.528104     Biso  1.000000 O
   O37        1.0     0.392903      0.569407      0.669200     Biso  1.000000 O
   O38        1.0     0.538629      0.800137      0.992003     Biso  1.000000 O
   O39        1.0     0.050391      0.729397      0.803165     Biso  1.000000 O
   O40        1.0     0.842276      0.508180      0.207645     Biso  1.000000 O
   O41        1.0     0.233321      0.061560      0.875468     Biso  1.000000 O
   O42        1.0     0.167508      0.187927      0.866893     Biso  1.000000 O
   O43        1.0     0.059639      0.099632      0.720797     Biso  1.000000 O
   O44        1.0     0.033994      0.273926      0.653252     Biso  1.000000 O
   O45        1.0     0.949794      0.209815      0.542294     Biso  1.000000 O
   O46        1.0     0.103293      0.118423      0.433550     Biso  1.000000 O
   O47        1.0     0.891413      0.153003      0.442859     Biso  1.000000 O
   O48        1.0     0.306740      0.043786      0.672482     Biso  1.000000 O
   O49        1.0     0.039478      0.009102      0.410835     Biso  1.000000 O
   O50        1.0     0.915158      0.993564      0.569852     Biso  1.000000 O
   O51        1.0     0.858808      0.836417      0.640872     Biso  1.000000 O
   O52        1.0     0.729071      0.843512      0.726993     Biso  1.000000 O
   O53        1.0     0.882278      0.943356      0.790096     Biso  1.000000 O
   O54        1.0     0.786111      0.857904      0.924451     Biso  1.000000 O
   O55        1.0     0.965873      0.867988      0.986542     Biso  1.000000 O
   O56        1.0     0.968328      0.730398      0.008015     Biso  1.000000 O
   O57        1.0     0.834357      0.934609      0.414022     Biso  1.000000 O
   O58        1.0     0.893701      0.552282      0.319552     Biso  1.000000 O
   O59        1.0     0.099177      0.028207      0.625424     Biso  1.000000 O
   O60        1.0     0.089732      0.786134      0.615546     Biso  1.000000 O
   O61        1.0     0.972641      0.433505      0.045275     Biso  1.000000 O
   O62        1.0     0.007213      0.585566      0.055782     Biso  1.000000 O
   O63        1.0     0.146237      0.545382      0.193272     Biso  1.000000 O
   O64        1.0     0.043707      0.695263      0.195373     Biso  1.000000 O
   O65        1.0     0.045406      0.745486      0.309182     Biso  1.000000 O
   O66        1.0     0.123167      0.679189      0.446064     Biso  1.000000 O
   O67        1.0     0.955391      0.573734      0.492028     Biso  1.000000 O
   O68        1.0     0.140602      0.883494      0.755661     Biso  1.000000 O
   O69        1.0     0.909875      0.663981      0.639516     Biso  1.000000 O
   O70        1.0     0.751230      0.788673      0.435577     Biso  1.000000 O
   O71        1.0     0.640011      0.698752      0.527039     Biso  1.000000 O
   O72        1.0     0.577280      0.864160      0.592100     Biso  1.000000 O
   O73        1.0     0.539094      0.808053      0.464766     Biso  1.000000 O
   O74        1.0     0.371582      0.779018      0.421612     Biso  1.000000 O
   O75        1.0     0.330458      0.916844      0.537090     Biso  1.000000 O
   O76        1.0     0.119927      0.851880      0.480045     Biso  1.000000 O
   O77        1.0     0.870492      0.763110      0.475716     Biso  1.000000 O
   O78        1.0     0.094177      0.369221      0.794025     Biso  1.000000 O
   O79        1.0     0.884480      0.104385      0.219087     Biso  1.000000 O
   O80        1.0     0.093588      0.337008      0.070281     Biso  1.000000 O
   O81        1.0     0.276628      0.246641      0.672032     Biso  1.000000 O
   O82        1.0     0.239654      0.202254      0.470047     Biso  1.000000 O
   O83        1.0     0.256032      0.062392      0.473031     Biso  1.000000 O
   O84        1.0     0.450786      0.128796      0.379278     Biso  1.000000 O
   O85        1.0     0.492332      0.959907      0.403293     Biso  1.000000 O
   O86        1.0     0.650264      0.998180      0.377563     Biso  1.000000 O
   O87        1.0     0.712168      0.942161      0.535508     Biso  1.000000 O
   O88        1.0     0.393975      0.252355      0.508555     Biso  1.000000 O
   O89        1.0     0.710862      0.125410      0.489154     Biso  1.000000 O
   O90        1.0     0.855044      0.156780      0.749894     Biso  1.000000 O
   O91        1.0     0.706357      0.191583      0.812418     Biso  1.000000 O
   O92        1.0     0.714419      0.381166      0.698694     Biso  1.000000 O
   O93        1.0     0.669202      0.337645      0.889162     Biso  1.000000 O
   O94        1.0     0.470011      0.379855      0.843971     Biso  1.000000 O
   O95        1.0     0.409035      0.219777      0.846982     Biso  1.000000 O
   O96        1.0     0.586158      0.226008      0.980877     Biso  1.000000 O
   O97        1.0     0.710582      0.073207      0.659093     Biso  1.000000 O
   O98        1.0     0.379195      0.147929      0.980761     Biso  1.000000 O
   O99        1.0     0.502207      0.336270      0.636213     Biso  1.000000 O
   O100       1.0     0.553999      0.104203      0.635113     Biso  1.000000 O
   O101       1.0     0.071387      0.629150      0.775150     Biso  1.000000 O
   O102       1.0     0.748281      0.327937      0.079393     Biso  1.000000 O
   O103       1.0     0.762861      0.272919      0.213141     Biso  1.000000 O
   O104       1.0     0.949911      0.271303      0.313191     Biso  1.000000 O
   O105       1.0     0.024614      0.239249      0.142644     Biso  1.000000 O
   O106       1.0     0.041082      0.086965      0.229077     Biso  1.000000 O
   O107       1.0     0.204622      0.128579      0.126465     Biso  1.000000 O
   O108       1.0     0.539007      0.195558      0.567367     Biso  1.000000 O
   O109       1.0     0.040947      0.027699      0.087384     Biso  1.000000 O
   O110       1.0     0.028749      0.030495      0.865653     Biso  1.000000 O
   O111       1.0     0.844572      0.058338      0.857142     Biso  1.000000 O
   O112       1.0     0.747027      0.124033      0.018659     Biso  1.000000 O
   O113       1.0     0.697603      0.963400      0.015377     Biso  1.000000 O
   O114       1.0     0.561057      0.015011      0.941596     Biso  1.000000 O
   O115       1.0     0.569417      0.946723      0.790370     Biso  1.000000 O
   O116       1.0     0.476850      0.097931      0.819228     Biso  1.000000 O
   O117       1.0     0.981590      0.125580      0.039146     Biso  1.000000 O
   O118       1.0     0.268830      0.182207      0.014705     Biso  1.000000 O
   O119       1.0     0.512837      0.162444      0.174672     Biso  1.000000 O
   O120       1.0     0.589043      0.088399      0.235926     Biso  1.000000 O
   O121       1.0     0.321830      0.838661      0.905060     Biso  1.000000 O
   O122       1.0     0.480392      0.892832      0.847306     Biso  1.000000 O
   O123       1.0     0.345922      0.870078      0.688956     Biso  1.000000 O
   O124       1.0     0.431349      0.695699      0.714679     Biso  1.000000 O
   O125       1.0     0.211355      0.754391      0.737402     Biso  1.000000 O
   O126       1.0     0.193674      0.578258      0.746313     Biso  1.000000 O
   O127       1.0     0.318578      0.645745      0.889099     Biso  1.000000 O
   O128       1.0     0.275593      0.952923      0.026734     Biso  1.000000 O
   O129       1.0     0.339242      0.473484      0.903735     Biso  1.000000 O
   O130       1.0     0.511924      0.547864      0.873553     Biso  1.000000 O
   O131       1.0     0.643210      0.496749      0.890694     Biso  1.000000 O
   O132       1.0     0.772460      0.446118      0.977307     Biso  1.000000 O
   O133       1.0     0.854451      0.514976      0.955259     Biso  1.000000 O
   O134       1.0     0.842110      0.667583      0.965521     Biso  1.000000 O
   O135       1.0     0.758224      0.738995      0.076396     Biso  1.000000 O
   O136       1.0     0.819947      0.713003      0.248472     Biso  1.000000 O
   O137       1.0     0.441262      0.613773      0.984574     Biso  1.000000 O
   O138       1.0     0.449898      0.885612      0.133827     Biso  1.000000 O
   O139       1.0     0.493662      0.019959      0.096651     Biso  1.000000 O
   O140       1.0     0.352029      0.092676      0.226547     Biso  1.000000 O
   O141       1.0     0.769809      0.062865      0.298692     Biso  1.000000 O
   O142       1.0     0.853813      0.946052      0.121893     Biso  1.000000 O
   O143       1.0     0.896681      0.842266      0.244328     Biso  1.000000 O
   O144       1.0     0.643870      0.913063      0.178962     Biso  1.000000 O
   O145       1.0     0.662287      0.856922      0.314667     Biso  1.000000 O
   O146       1.0     0.587698      0.692351      0.318779     Biso  1.000000 O
   O147       1.0     0.573730      0.688774      0.164783     Biso  1.000000 O
   O148       1.0     0.402993      0.734536      0.095969     Biso  1.000000 O
   O149       1.0     0.268271      0.686926      0.237947     Biso  1.000000 O
   O150       1.0     0.222457      0.596896      0.103746     Biso  1.000000 O
   O151       1.0     0.189120      0.648845      0.001745     Biso  1.000000 O
   O152       1.0     0.214334      0.782278      0.150955     Biso  1.000000 O
   O153       1.0     0.034969      0.830867      0.147497     Biso  1.000000 O
   O154       1.0     0.193829      0.931842      0.177202     Biso  1.000000 O
   O155       1.0     0.208371      0.822094      0.326169     Biso  1.000000 O
   O156       1.0     0.204165      0.001726      0.283852     Biso  1.000000 O
   O157       1.0     0.370007      0.880209      0.279702     Biso  1.000000 O
   O158       1.0     0.162561      0.437678      0.976066     Biso  1.000000 O
   O159       1.0     0.931219      0.298619      0.809462     Biso  1.000000 O
   O160       1.0     0.834633      0.643712      0.234215     Biso  1.000000 O
   O161       1.0     0.763729      0.271839      0.996684     Biso  1.000000 O
   O162       1.0     0.429707      0.460940      0.282330     Biso  1.000000 O
   O163       1.0     0.415712      0.326089      0.401673     Biso  1.000000 O
   O164       1.0     0.598974      0.354293      0.287001     Biso  1.000000 O
   O165       1.0     0.594654      0.238634      0.440297     Biso  1.000000 O
   O166       1.0     0.784397      0.281961      0.365495     Biso  1.000000 O
   O167       1.0     0.788494      0.230649      0.520630     Biso  1.000000 O
   O168       1.0     0.884245      0.397981      0.506812     Biso  1.000000 O
   O169       1.0     0.501656      0.498281      0.431143     Biso  1.000000 O
   O170       1.0     0.944213      0.382559      0.676772     Biso  1.000000 O
   O171       1.0     0.878264      0.504741      0.845535     Biso  1.000000 O
   O172       1.0     0.727515      0.562507      0.683516     Biso  1.000000 O
   O173       1.0     0.770863      0.710957      0.727161     Biso  1.000000 O
   O174       1.0     0.589473      0.699495      0.800178     Biso  1.000000 O
   O175       1.0     0.557885      0.769825      0.888621     Biso  1.000000 O
   O176       1.0     0.518691      0.743149      0.033836     Biso  1.000000 O
   O177       1.0     0.981579      0.550393      0.328822     Biso  1.000000 O
   O178       1.0     0.878339      0.533187      0.631577     Biso  1.000000 O
   O179       1.0     0.912224      0.550845      0.205874     Biso  1.000000 O
   O180       1.0     0.461794      0.614303      0.349253     Biso  1.000000 O
   O181       1.0     0.368097      0.697264      0.557957     Biso  1.000000 O
   O182       1.0     0.133692      0.480810      0.646600     Biso  1.000000 O
   O183       1.0     0.085189      0.489787      0.538018     Biso  1.000000 O
   O184       1.0     0.249182      0.475116      0.417163     Biso  1.000000 O
   O185       1.0     0.131358      0.349069      0.449504     Biso  1.000000 O
   O186       1.0     0.121476      0.338959      0.260335     Biso  1.000000 O
   O187       1.0     0.287035      0.304991      0.231678     Biso  1.000000 O
   O188       1.0     0.308469      0.444913      0.129466     Biso  1.000000 O
   O189       1.0     0.265355      0.690136      0.401564     Biso  1.000000 O
   O190       1.0     0.483469      0.356087      0.129933     Biso  1.000000 O
   O191       1.0     0.669761      0.394316      0.218391     Biso  1.000000 O
   O192       1.0     0.649478      0.555639      0.301725     Biso  1.000000 O
   O193       1.0     0.769145      0.546091      0.411794     Biso  1.000000 O
   O194       1.0     0.711960      0.546082      0.536914     Biso  1.000000 O
   O195       1.0     0.573280      0.437107      0.601395     Biso  1.000000 O
   O196       1.0     0.518268      0.576708      0.674917     Biso  1.000000 O
   O197       1.0     0.363025      0.534416      0.605703     Biso  1.000000 O
   O198       1.0     0.531859      0.520350      0.138501     Biso  1.000000 O
   O199       1.0     0.260741      0.476619      0.670148     Biso  1.000000 O
   O200       1.0     0.996363      0.398360      0.110989     Biso  1.000000 O
   O201       1.0     0.077138      0.520561      0.231340     Biso  1.000000 O
   O202       1.0     0.117790      0.261018      0.648660     Biso  1.000000 O
   O203       1.0     0.968471      0.144261      0.569149     Biso  1.000000 O
   O204       1.0     0.087153      0.175725      0.389293     Biso  1.000000 O
   O205       1.0     0.910392      0.157998      0.366859     Biso  1.000000 O
   O206       1.0     0.006930      0.017358      0.485900     Biso  1.000000 O
   O207       1.0     0.901454      0.905649      0.378076     Biso  1.000000 O
   O208       1.0     0.985744      0.954100      0.572020     Biso  1.000000 O
   O209       1.0     0.030735      0.149865      0.773105     Biso  1.000000 O
   O210       1.0     0.925807      0.873200      0.667386     Biso  1.000000 O
   O211       1.0     0.806163      0.967042      0.822802     Biso  1.000000 O
   O212       1.0     0.806726      0.797511      0.888719     Biso  1.000000 O
   O213       1.0     0.003890      0.871505      0.912767     Biso  1.000000 O
   O214       1.0     0.035377      0.776583      0.022542     Biso  1.000000 O
   O215       1.0     0.973588      0.710430      0.828256     Biso  1.000000 O
   O216       1.0     0.988051      0.615385      0.773485     Biso  1.000000 O
   O217       1.0     0.848805      0.289950      0.907949     Biso  1.000000 O
   O218       1.0     0.691459      0.893751      0.679675     Biso  1.000000 O
   O219       1.0     0.070764      0.543657      0.033221     Biso  1.000000 O
   O220       1.0     0.217083      0.206747      0.804356     Biso  1.000000 O
   O221       1.0     0.331410      0.987817      0.714117     Biso  1.000000 O
   O222       1.0     0.123821      0.684504      0.207342     Biso  1.000000 O
   O223       1.0     0.113005      0.708140      0.340724     Biso  1.000000 O
   O224       1.0     0.050572      0.719598      0.439675     Biso  1.000000 O
   O225       1.0     0.994955      0.595697      0.561123     Biso  1.000000 O
   O226       1.0     0.937434      0.722193      0.598323     Biso  1.000000 O
   O227       1.0     0.836804      0.723169      0.416619     Biso  1.000000 O
   O228       1.0     0.785756      0.836348      0.488662     Biso  1.000000 O
   O229       1.0     0.190748      0.010951      0.832504     Biso  1.000000 O
   O230       1.0     0.675806      0.701061      0.599219     Biso  1.000000 O
   O231       1.0     0.508030      0.746048      0.440564     Biso  1.000000 O
   O232       1.0     0.427732      0.836028      0.413699     Biso  1.000000 O
   O233       1.0     0.319624      0.922931      0.459596     Biso  1.000000 O
   O234       1.0     0.176692      0.800423      0.486156     Biso  1.000000 O
   O235       1.0     0.074688      0.845438      0.569901     Biso  1.000000 O
   O236       1.0     0.067577      0.916834      0.742792     Biso  1.000000 O
   O237       1.0     0.152441      0.983496      0.588319     Biso  1.000000 O
   O238       1.0     0.560773      0.833954      0.663331     Biso  1.000000 O
   O239       1.0     0.204727      0.341965      0.779683     Biso  1.000000 O
   O240       1.0     0.078445      0.435080      0.770600     Biso  1.000000 O
   O241       1.0     0.076610      0.434339      0.973800     Biso  1.000000 O
   O242       1.0     0.199225      0.147477      0.505726     Biso  1.000000 O
   O243       1.0     0.322453      0.052433      0.524506     Biso  1.000000 O
   O244       1.0     0.391374      0.083671      0.345964     Biso  1.000000 O
   O245       1.0     0.484670      0.973010      0.484005     Biso  1.000000 O
   O246       1.0     0.642790      0.066765      0.397165     Biso  1.000000 O
   O247       1.0     0.650317      0.977534      0.566629     Biso  1.000000 O
   O248       1.0     0.784525      0.102958      0.455074     Biso  1.000000 O
   O249       1.0     0.323854      0.193431      0.642426     Biso  1.000000 O
   O250       1.0     0.784031      0.042653      0.665942     Biso  1.000000 O
   O251       1.0     0.651770      0.208952      0.753760     Biso  1.000000 O
   O252       1.0     0.640064      0.349536      0.694139     Biso  1.000000 O
   O253       1.0     0.677778      0.398558      0.848578     Biso  1.000000 O
   O254       1.0     0.492993      0.328282      0.790099     Biso  1.000000 O
   O255       1.0     0.403076      0.281679      0.885163     Biso  1.000000 O
   O256       1.0     0.523879      0.269988      0.015626     Biso  1.000000 O
   O257       1.0     0.380385      0.143816      0.059535     Biso  1.000000 O
   O258       1.0     0.861641      0.193763      0.681619     Biso  1.000000 O
   O259       1.0     0.286756      0.201748      0.940827     Biso  1.000000 O
   O260       1.0     0.387582      0.322779      0.499067     Biso  1.000000 O
   O261       1.0     0.606901      0.190641      0.610243     Biso  1.000000 O
   O262       1.0     0.741804      0.261520      0.108638     Biso  1.000000 O
   O263       1.0     0.809324      0.334140      0.228540     Biso  1.000000 O
   O264       1.0     0.921755      0.337566      0.291319     Biso  1.000000 O
   O265       1.0     0.096579      0.270060      0.180755     Biso  1.000000 O
   O266       1.0     0.106057      0.109060      0.277077     Biso  1.000000 O
   O267       1.0     0.153007      0.178882      0.094539     Biso  1.000000 O
   O268       1.0     0.107975      0.999429      0.047882     Biso  1.000000 O
   O269       1.0     0.437214      0.312911      0.684953     Biso  1.000000 O
   O270       1.0     0.002270      0.189123      0.003668     Biso  1.000000 O
   O271       1.0     0.841441      0.123471      0.885726     Biso  1.000000 O
   O272       1.0     0.793898      0.089250      0.074361     Biso  1.000000 O
   O273       1.0     0.744036      0.959983      0.947409     Biso  1.000000 O
   O274       1.0     0.593778      0.948273      0.950842     Biso  1.000000 O
   O275       1.0     0.627489      0.993012      0.760809     Biso  1.000000 O
   O276       1.0     0.433411      0.054761      0.767511     Biso  1.000000 O
   O277       1.0     0.470589      0.107843      0.621675     Biso  1.000000 O
   O278       1.0     0.002202      0.014954      0.940381     Biso  1.000000 O
   O279       1.0     0.552401      0.150605      0.103595     Biso  1.000000 O
   O280       1.0     0.626605      0.069360      0.168800     Biso  1.000000 O
   O281       1.0     0.776984      0.128476      0.273180     Biso  1.000000 O
   O282       1.0     0.258940      0.867590      0.861619     Biso  1.000000 O
   O283       1.0     0.436734      0.831629      0.863249     Biso  1.000000 O
   O284       1.0     0.430821      0.853590      0.678832     Biso  1.000000 O
   O285       1.0     0.400795      0.713015      0.786149     Biso  1.000000 O
   O286       1.0     0.260771      0.740789      0.800171     Biso  1.000000 O
   O287       1.0     0.265775      0.589899      0.705873     Biso  1.000000 O
   O288       1.0     0.242460      0.622266      0.913462     Biso  1.000000 O
   O289       1.0     0.335409      0.992830      0.986222     Biso  1.000000 O
   O290       1.0     0.294531      0.491325      0.968328     Biso  1.000000 O
   O291       1.0     0.535151      0.480726      0.851811     Biso  1.000000 O
   O292       1.0     0.626466      0.562953      0.908701     Biso  1.000000 O
   O293       1.0     0.731533      0.426960      0.043669     Biso  1.000000 O
   O294       1.0     0.840244      0.518167      0.034110     Biso  1.000000 O
   O295       1.0     0.758159      0.669679      0.974193     Biso  1.000000 O
   O296       1.0     0.839368      0.729001      0.062431     Biso  1.000000 O
   O297       1.0     0.173887      0.342828      0.042625     Biso  1.000000 O
   O298       1.0     0.444064      0.575993      0.051052     Biso  1.000000 O
   O299       1.0     0.485886      0.913160      0.070893     Biso  1.000000 O
   O300       1.0     0.489326      0.979847      0.165700     Biso  1.000000 O
   O301       1.0     0.299595      0.053252      0.182779     Biso  1.000000 O
   O302       1.0     0.888769      0.049421      0.272287     Biso  1.000000 O
   O303       1.0     0.931872      0.938314      0.154842     Biso  1.000000 O
   O304       1.0     0.828474      0.850301      0.293892     Biso  1.000000 O
   O305       1.0     0.710125      0.930932      0.229798     Biso  1.000000 O
   O306       1.0     0.596319      0.867436      0.265599     Biso  1.000000 O
   O307       1.0     0.640721      0.698451      0.255964     Biso  1.000000 O
   O308       1.0     0.530639      0.651157      0.220510     Biso  1.000000 O
   O309       1.0     0.377069      0.761052      0.167893     Biso  1.000000 O
   O310       1.0     0.271526      0.613917      0.231885     Biso  1.000000 O
   O311       1.0     0.289599      0.620067      0.055392     Biso  1.000000 O
   O312       1.0     0.118783      0.671564      0.034908     Biso  1.000000 O
   O313       1.0     0.255730      0.826766      0.101575     Biso  1.000000 O
   O314       1.0     0.033994      0.893133      0.112205     Biso  1.000000 O
   O315       1.0     0.124300      0.964102      0.204897     Biso  1.000000 O
   O316       1.0     0.154881      0.859118      0.370229     Biso  1.000000 O
   O317       1.0     0.241640      0.020210      0.356004     Biso  1.000000 O
   O318       1.0     0.321765      0.908156      0.218415     Biso  1.000000 O
   O319       1.0     0.882214      0.341632      0.951127     Biso  1.000000 O
   O320       1.0     0.959567      0.344949      0.867983     Biso  1.000000 O

# Number_of_total_atoms: 2408
# Number_of_atom_type: 3
# Name_of_each_atom:  C  H O
# Number_of_each_atom: 800 1288 320
# Created_by: Lihua Chen (lihua.chen@mse.gatech.edu)
# Tool: VASP 
# K-points: 1 1 1
# Pseudopotential: PBE-HSE06
# Material_class: MC_Pol
# Geometry_class: GC_PD
# Bandgap_(eV): 5.00

# Note: average bandgap of 5 configurations
# Note:  HSE06 Band gap is derived from PBE band gap, based on Eg (HSE06)=1.140*Eg (PBE) + 0.799, R2=0.97
