#======================================================================

# Note: Amorphous region of atactic poly(methyl methacrylate)
# Common_name: Amorphous region
#----------------------------------------------------------------------

data_VESTA_phase_1


_chemical_name_common                  'C  H  O                               '
_cell_length_a                         29.85415
_cell_length_b                         27.60467
_cell_length_c                         29.39104
_cell_angle_alpha                      90
_cell_angle_beta                       90
_cell_angle_gamma                      90
_space_group_name_H-M_alt              'P 1'
_space_group_IT_number                 1

loop_
_space_group_symop_operation_xyz
   'x, y, z'

loop_
   _atom_site_label
   _atom_site_occupancy
   _atom_site_fract_x
   _atom_site_fract_y
   _atom_site_fract_z
   _atom_site_adp_type
   _atom_site_B_iso_or_equiv
   _atom_site_type_symbol
   C1         1.0     0.148719      0.145435      0.873051     Biso  1.000000 C
   C2         1.0     0.538698      0.656280      0.006035     Biso  1.000000 C
   C3         1.0     0.634480      0.607346      0.980056     Biso  1.000000 C
   C4         1.0     0.592969      0.617507      0.948217     Biso  1.000000 C
   C5         1.0     0.704481      0.689368      0.058721     Biso  1.000000 C
   C6         1.0     0.625138      0.567784      0.016953     Biso  1.000000 C
   C7         1.0     0.705218      0.609284      0.912481     Biso  1.000000 C
   C8         1.0     0.670991      0.583948      0.948064     Biso  1.000000 C
   C9         1.0     0.691354      0.745681      0.895745     Biso  1.000000 C
   C10        1.0     0.746143      0.617536      0.941453     Biso  1.000000 C
   C11        1.0     0.751312      0.577308      0.830531     Biso  1.000000 C
   C12        1.0     0.715468      0.574428      0.872360     Biso  1.000000 C
   C13        1.0     0.879529      0.571135      0.838006     Biso  1.000000 C
   C14        1.0     0.755432      0.631487      0.816357     Biso  1.000000 C
   C15        1.0     0.717042      0.493253      0.790002     Biso  1.000000 C
   C16        1.0     0.732551      0.547548      0.786950     Biso  1.000000 C
   C17        1.0     0.596626      0.515032      0.813703     Biso  1.000000 C
   C18        1.0     0.751335      0.461048      0.814530     Biso  1.000000 C
   C19        1.0     0.678679      0.440523      0.717456     Biso  1.000000 C
   C20        1.0     0.714054      0.475604      0.738258     Biso  1.000000 C
   C21        1.0     0.707171      0.316946      0.762626     Biso  1.000000 C
   C22        1.0     0.634032      0.466156      0.707929     Biso  1.000000 C
   C23        1.0     0.481674      0.522516      0.024649     Biso  1.000000 C
   C24        1.0     0.678002      0.394661      0.627210     Biso  1.000000 C
   C25        1.0     0.512923      0.640659      0.922219     Biso  1.000000 C
   C26        1.0     0.435781      0.622300      0.950677     Biso  1.000000 C
   C27        1.0     0.734383      0.869584      0.768036     Biso  1.000000 C
   C28        1.0     0.690774      0.970824      0.899518     Biso  1.000000 C
   C29        1.0     0.617846      0.891878      0.849322     Biso  1.000000 C
   C30        1.0     0.660584      0.885969      0.879560     Biso  1.000000 C
   C31        1.0     0.632367      0.778016      0.779577     Biso  1.000000 C
   C32        1.0     0.606947      0.943760      0.835097     Biso  1.000000 C
   C33        1.0     0.528944      0.856333      0.857866     Biso  1.000000 C
   C34        1.0     0.576747      0.869957      0.877437     Biso  1.000000 C
   C35        1.0     0.480455      0.979736      0.843348     Biso  1.000000 C
   C36        1.0     0.498519      0.840915      0.897776     Biso  1.000000 C
   C37        1.0     0.490943      0.782776      0.806612     Biso  1.000000 C
   C38        1.0     0.532856      0.814322      0.820991     Biso  1.000000 C
   C39        1.0     0.467814      0.771724      0.676811     Biso  1.000000 C
   C40        1.0     0.445565      0.807290      0.801049     Biso  1.000000 C
   C41        1.0     0.466249      0.686068      0.832603     Biso  1.000000 C
   C42        1.0     0.484123      0.739077      0.842249     Biso  1.000000 C
   C43        1.0     0.576401      0.638167      0.793618     Biso  1.000000 C
   C44        1.0     0.428995      0.689683      0.797735     Biso  1.000000 C
   C45        1.0     0.463995      0.658616      0.923046     Biso  1.000000 C
   C46        1.0     0.444162      0.659913      0.873422     Biso  1.000000 C
   C47        1.0     0.406331      0.754941      0.992026     Biso  1.000000 C
   C48        1.0     0.541907      0.623401      0.964225     Biso  1.000000 C
   C49        1.0     0.741407      0.896732      0.912553     Biso  1.000000 C
   C50        1.0     0.701175      0.424605      0.669815     Biso  1.000000 C
   C51        1.0     0.645658      0.353259      0.648523     Biso  1.000000 C
   C52        1.0     0.014245      0.507522      0.329718     Biso  1.000000 C
   C53        1.0     0.923258      0.616957      0.331552     Biso  1.000000 C
   C54        1.0     0.066144      0.545552      0.270507     Biso  1.000000 C
   C55        1.0     0.094127      0.628842      0.340405     Biso  1.000000 C
   C56        1.0     0.059512      0.585835      0.353474     Biso  1.000000 C
   C57        1.0     0.198498      0.550790      0.335731     Biso  1.000000 C
   C58        1.0     0.074086      0.667792      0.306249     Biso  1.000000 C
   C59        1.0     0.137106      0.698704      0.396460     Biso  1.000000 C
   C60        1.0     0.105713      0.652128      0.387998     Biso  1.000000 C
   C61        1.0     0.112426      0.827552      0.360445     Biso  1.000000 C
   C62        1.0     0.182386      0.695472      0.372507     Biso  1.000000 C
   C63        1.0     0.171680      0.744500      0.473960     Biso  1.000000 C
   C64        1.0     0.150159      0.700330      0.449830     Biso  1.000000 C
   C65        1.0     0.124297      0.868715      0.490591     Biso  1.000000 C
   C66        1.0     0.214358      0.762320      0.448881     Biso  1.000000 C
   C67        1.0     0.166462      0.693672      0.559156     Biso  1.000000 C
   C68        1.0     0.189299      0.727087      0.520913     Biso  1.000000 C
   C69        1.0     0.207833      0.779364      0.647621     Biso  1.000000 C
   C70        1.0     0.174598      0.639054      0.547720     Biso  1.000000 C
   C71        1.0     0.088968      0.677186      0.607623     Biso  1.000000 C
   C72        1.0     0.115604      0.700783      0.567944     Biso  1.000000 C
   C73        1.0     0.035793      0.553283      0.314159     Biso  1.000000 C
   C74        1.0     0.588058      0.435433      0.544998     Biso  1.000000 C
   C75        1.0     0.053928      0.434375      0.291445     Biso  1.000000 C
   C76        1.0     0.008360      0.418121      0.361565     Biso  1.000000 C
   C77        1.0     0.722405      0.336348      0.557645     Biso  1.000000 C
   C78        1.0     0.720351      0.371556      0.600944     Biso  1.000000 C
   C79        1.0     0.706095      0.433220      0.471588     Biso  1.000000 C
   C80        1.0     0.697313      0.290023      0.571527     Biso  1.000000 C
   C81        1.0     0.793842      0.285658      0.519654     Biso  1.000000 C
   C82        1.0     0.776015      0.327643      0.550881     Biso  1.000000 C
   C83        1.0     0.752950      0.310925      0.399594     Biso  1.000000 C
   C84        1.0     0.792623      0.238365      0.548319     Biso  1.000000 C
   C85        1.0     0.882640      0.269117      0.480877     Biso  1.000000 C
   C86        1.0     0.844458      0.301785      0.508525     Biso  1.000000 C
   C87        1.0     0.833193      0.197434      0.381149     Biso  1.000000 C
   C88        1.0     0.912757      0.250301      0.519586     Biso  1.000000 C
   C89        1.0     0.955022      0.298188      0.422281     Biso  1.000000 C
   C90        1.0     0.908680      0.305227      0.448319     Biso  1.000000 C
   C91        1.0     0.045470      0.211891      0.457754     Biso  1.000000 C
   C92        1.0     0.944782      0.266045      0.380057     Biso  1.000000 C
   C93        1.0     0.017410      0.364391      0.378386     Biso  1.000000 C
   C94        1.0     0.970789      0.350578      0.403751     Biso  1.000000 C
   C95        1.0     0.011555      0.321594      0.259609     Biso  1.000000 C
   C96        1.0     0.056598      0.361315      0.411910     Biso  1.000000 C
   C97        1.0     0.039846      0.456339      0.337051     Biso  1.000000 C
   C98        1.0     0.099791      0.496926      0.441355     Biso  1.000000 C
   C99        1.0     0.076645      0.557065      0.548401     Biso  1.000000 C
   C100       1.0     0.702994      0.920605      0.881679     Biso  1.000000 C
   C101       1.0     0.765296      0.006839      0.042393     Biso  1.000000 C
   C102       1.0     0.982680      0.069049      0.909266     Biso  1.000000 C
   C103       1.0     0.055124      0.992092      0.861775     Biso  1.000000 C
   C104       1.0     0.034125      0.997450      0.913386     Biso  1.000000 C
   C105       1.0     0.171922      0.939859      0.877518     Biso  1.000000 C
   C106       1.0     0.077044      0.038910      0.848792     Biso  1.000000 C
   C107       1.0     0.022120      0.967557      0.775113     Biso  1.000000 C
   C108       1.0     0.017069      0.978399      0.827282     Biso  1.000000 C
   C109       1.0     0.020566      0.098899      0.740456     Biso  1.000000 C
   C110       1.0     0.056293      0.924655      0.766382     Biso  1.000000 C
   C111       1.0     0.957843      0.933327      0.710913     Biso  1.000000 C
   C112       1.0     0.973093      0.952135      0.759179     Biso  1.000000 C
   C113       1.0     0.994347      0.805783      0.721355     Biso  1.000000 C
   C114       1.0     0.910898      0.958620      0.708378     Biso  1.000000 C
   C115       1.0     0.989084      0.929483      0.622913     Biso  1.000000 C
   C116       1.0     0.988582      0.951480      0.671438     Biso  1.000000 C
   C117       1.0     0.096331      0.855329      0.635233     Biso  1.000000 C
   C118       1.0     0.940639      0.917073      0.606864     Biso  1.000000 C
   C119       1.0     0.012674      0.968220      0.538830     Biso  1.000000 C
   C120       1.0     0.009522      0.969676      0.591506     Biso  1.000000 C
   C121       1.0     0.085776      0.079645      0.539180     Biso  1.000000 C
   C122       1.0     0.021051      0.914986      0.519252     Biso  1.000000 C
   C123       1.0     0.875640      0.978251      0.864443     Biso  1.000000 C
   C124       1.0     0.949984      0.982025      0.472653     Biso  1.000000 C
   C125       1.0     0.983450      0.008038      0.978580     Biso  1.000000 C
   C126       1.0     0.900872      0.029237      0.990944     Biso  1.000000 C
   C127       1.0     0.957685      0.498618      0.024377     Biso  1.000000 C
   C128       1.0     0.067645      0.427076      0.985442     Biso  1.000000 C
   C129       1.0     0.035843      0.334744      0.924628     Biso  1.000000 C
   C130       1.0     0.033190      0.389843      0.911600     Biso  1.000000 C
   C131       1.0     0.155897      0.316591      0.899178     Biso  1.000000 C
   C132       1.0     0.020519      0.309954      0.879893     Biso  1.000000 C
   C133       1.0     0.988672      0.274913      0.984204     Biso  1.000000 C
   C134       1.0     0.999597      0.324437      0.961775     Biso  1.000000 C
   C135       1.0     0.868200      0.270878      0.031655     Biso  1.000000 C
   C136       1.0     0.975401      0.241252      0.945420     Biso  1.000000 C
   C137       1.0     0.024562      0.211087      0.050695     Biso  1.000000 C
   C138       1.0     0.027898      0.255333      0.013887     Biso  1.000000 C
   C139       1.0     0.934013      0.226490      0.134223     Biso  1.000000 C
   C140       1.0     0.072669      0.196372      0.064382     Biso  1.000000 C
   C141       1.0     0.999033      0.112962      0.048116     Biso  1.000000 C
   C142       1.0     0.002399      0.165718      0.026000     Biso  1.000000 C
   C143       1.0     0.105331      0.079214      0.995238     Biso  1.000000 C
   C144       1.0     0.984871      0.113690      0.100427     Biso  1.000000 C
   C145       1.0     0.948782      0.035743      0.011863     Biso  1.000000 C
   C146       1.0     0.960556      0.090673      0.019610     Biso  1.000000 C
   C147       1.0     0.972678      0.953900      0.111734     Biso  1.000000 C
   C148       1.0     0.985162      0.016326      0.926598     Biso  1.000000 C
   C149       1.0     0.697045      0.889994      0.989120     Biso  1.000000 C
   C150       1.0     0.968327      0.989694      0.522070     Biso  1.000000 C
   C151       1.0     0.937182      0.928241      0.464072     Biso  1.000000 C
   C152       1.0     0.281843      0.178357      0.114588     Biso  1.000000 C
   C153       1.0     0.191098      0.305009      0.041399     Biso  1.000000 C
   C154       1.0     0.211899      0.158263      0.062321     Biso  1.000000 C
   C155       1.0     0.905867      0.628419      0.131005     Biso  1.000000 C
   C156       1.0     0.952965      0.612965      0.124785     Biso  1.000000 C
   C157       1.0     0.791326      0.568907      0.117334     Biso  1.000000 C
   C158       1.0     0.898528      0.635080      0.183259     Biso  1.000000 C
   C159       1.0     0.912114      0.696987      0.060504     Biso  1.000000 C
   C160       1.0     0.900876      0.681018      0.110856     Biso  1.000000 C
   C161       1.0     0.856895      0.611657      0.976419     Biso  1.000000 C
   C162       1.0     0.959876      0.716813      0.058632     Biso  1.000000 C
   C163       1.0     0.886593      0.776223      0.007195     Biso  1.000000 C
   C164       1.0     0.879592      0.739190      0.049963     Biso  1.000000 C
   C165       1.0     0.995372      0.838803      0.989062     Biso  1.000000 C
   C166       1.0     0.894260      0.747098      0.961602     Biso  1.000000 C
   C167       1.0     0.825754      0.846527      0.972632     Biso  1.000000 C
   C168       1.0     0.841497      0.805229      0.006926     Biso  1.000000 C
   C169       1.0     0.843390      0.844788      0.848540     Biso  1.000000 C
   C170       1.0     0.855341      0.888998      0.978961     Biso  1.000000 C
   C171       1.0     0.743594      0.900858      0.967011     Biso  1.000000 C
   C172       1.0     0.774451      0.859680      0.989651     Biso  1.000000 C
   C173       1.0     0.234697      0.193844      0.097049     Biso  1.000000 C
   C174       1.0     0.856490      0.074509      0.485143     Biso  1.000000 C
   C175       1.0     0.287262      0.237695      0.178295     Biso  1.000000 C
   C176       1.0     0.253867      0.151380      0.194133     Biso  1.000000 C
   C177       1.0     0.999231      0.048727      0.416347     Biso  1.000000 C
   C178       1.0     0.988843      0.995030      0.436646     Biso  1.000000 C
   C179       1.0     0.931384      0.026133      0.310179     Biso  1.000000 C
   C180       1.0     0.989450      0.089390      0.449309     Biso  1.000000 C
   C181       1.0     0.073128      0.029650      0.361463     Biso  1.000000 C
   C182       1.0     0.049506      0.055813      0.404340     Biso  1.000000 C
   C183       1.0     0.016265      0.920434      0.311274     Biso  1.000000 C
   C184       1.0     0.123258      0.031088      0.376314     Biso  1.000000 C
   C185       1.0     0.093718      0.059540      0.272194     Biso  1.000000 C
   C186       1.0     0.065514      0.062873      0.317432     Biso  1.000000 C
   C187       1.0     0.139728      0.929570      0.260816     Biso  1.000000 C
   C188       1.0     0.065538      0.089763      0.239031     Biso  1.000000 C
   C189       1.0     0.168207      0.110064      0.239633     Biso  1.000000 C
   C190       1.0     0.141902      0.082699      0.278386     Biso  1.000000 C
   C191       1.0     0.110399      0.229399      0.242865     Biso  1.000000 C
   C192       1.0     0.169520      0.070223      0.202452     Biso  1.000000 C
   C193       1.0     0.247255      0.155676      0.246748     Biso  1.000000 C
   C194       1.0     0.216753      0.113958      0.262810     Biso  1.000000 C
   C195       1.0     0.346400      0.183356      0.322703     Biso  1.000000 C
   C196       1.0     0.225130      0.205704      0.260759     Biso  1.000000 C
   C197       1.0     0.290240      0.184957      0.168288     Biso  1.000000 C
   C198       1.0     0.415362      0.198571      0.194568     Biso  1.000000 C
   C199       1.0     0.105010      0.687401      0.657818     Biso  1.000000 C
   C200       1.0     0.993751      0.671093      0.611267     Biso  1.000000 C
   C201       1.0     0.040315      0.697852      0.596062     Biso  1.000000 C
   C202       1.0     0.761217      0.889048      0.535441     Biso  1.000000 C
   C203       1.0     0.817939      0.871276      0.665920     Biso  1.000000 C
   C204       1.0     0.796143      0.971524      0.529068     Biso  1.000000 C
   C205       1.0     0.719400      0.999710      0.616204     Biso  1.000000 C
   C206       1.0     0.728471      0.957472      0.583354     Biso  1.000000 C
   C207       1.0     0.807649      0.010324      0.709290     Biso  1.000000 C
   C208       1.0     0.731914      0.049759      0.595422     Biso  1.000000 C
   C209       1.0     0.633918      0.035631      0.641715     Biso  1.000000 C
   C210       1.0     0.667558      0.996526      0.620280     Biso  1.000000 C
   C211       1.0     0.642761      0.157618      0.580968     Biso  1.000000 C
   C212       1.0     0.589462      0.008730      0.649700     Biso  1.000000 C
   C213       1.0     0.627071      0.082420      0.726836     Biso  1.000000 C
   C214       1.0     0.653523      0.052596      0.690410     Biso  1.000000 C
   C215       1.0     0.718455      0.090904      0.815778     Biso  1.000000 C
   C216       1.0     0.600077      0.048122      0.755641     Biso  1.000000 C
   C217       1.0     0.548459      0.145181      0.725026     Biso  1.000000 C
   C218       1.0     0.594958      0.120914      0.704891     Biso  1.000000 C
   C219       1.0     0.470952      0.057432      0.674177     Biso  1.000000 C
   C220       1.0     0.557721      0.170735      0.770523     Biso  1.000000 C
   C221       1.0     0.496694      0.217379      0.685858     Biso  1.000000 C
   C222       1.0     0.537013      0.181132      0.686674     Biso  1.000000 C
   C223       1.0     0.773503      0.937134      0.563191     Biso  1.000000 C
   C224       1.0     0.545016      0.308389      0.764742     Biso  1.000000 C
   C225       1.0     0.838422      0.848646      0.519300     Biso  1.000000 C
   C226       1.0     0.763937      0.815963      0.486715     Biso  1.000000 C
   C227       1.0     0.774270      0.996179      0.195245     Biso  1.000000 C
   C228       1.0     0.833424      0.896580      0.173474     Biso  1.000000 C
   C229       1.0     0.846572      0.951092      0.184171     Biso  1.000000 C
   C230       1.0     0.710115      0.878021      0.164216     Biso  1.000000 C
   C231       1.0     0.868960      0.882687      0.136231     Biso  1.000000 C
   C232       1.0     0.847918      0.807142      0.220838     Biso  1.000000 C
   C233       1.0     0.844274      0.863502      0.215952     Biso  1.000000 C
   C234       1.0     0.787602      0.749130      0.128035     Biso  1.000000 C
   C235       1.0     0.891828      0.789641      0.199866     Biso  1.000000 C
   C236       1.0     0.853971      0.757165      0.304340     Biso  1.000000 C
   C237       1.0     0.843403      0.800712      0.273174     Biso  1.000000 C
   C238       1.0     0.975482      0.768891      0.325833     Biso  1.000000 C
   C239       1.0     0.829629      0.711100      0.290305     Biso  1.000000 C
   C240       1.0     0.841638      0.740602      0.396671     Biso  1.000000 C
   C241       1.0     0.843410      0.772072      0.354216     Biso  1.000000 C
   C242       1.0     0.960854      0.750148      0.440453     Biso  1.000000 C
   C243       1.0     0.810148      0.693770      0.389322     Biso  1.000000 C
   C244       1.0     0.770304      0.781052      0.445941     Biso  1.000000 C
   C245       1.0     0.682772      0.678562      0.441508     Biso  1.000000 C
   C246       1.0     0.746977      0.800907      0.401400     Biso  1.000000 C
   C247       1.0     0.792656      0.863640      0.499015     Biso  1.000000 C
   C248       1.0     0.749731      0.941699      0.401070     Biso  1.000000 C
   C249       1.0     0.860921      0.934497      0.330443     Biso  1.000000 C
   C250       1.0     0.450596      0.188489      0.689508     Biso  1.000000 C
   C251       1.0     0.494704      0.239767      0.634587     Biso  1.000000 C
   C252       1.0     0.504177      0.330922      0.302176     Biso  1.000000 C
   C253       1.0     0.513409      0.343927      0.196188     Biso  1.000000 C
   C254       1.0     0.526696      0.298308      0.223795     Biso  1.000000 C
   C255       1.0     0.386636      0.333266      0.223462     Biso  1.000000 C
   C256       1.0     0.508438      0.329929      0.145608     Biso  1.000000 C
   C257       1.0     0.562196      0.425844      0.167921     Biso  1.000000 C
   C258       1.0     0.550449      0.383167      0.201254     Biso  1.000000 C
   C259       1.0     0.556505      0.404648      0.043580     Biso  1.000000 C
   C260       1.0     0.525655      0.461396      0.163838     Biso  1.000000 C
   C261       1.0     0.632997      0.492557      0.174249     Biso  1.000000 C
   C262       1.0     0.604237      0.449536      0.193932     Biso  1.000000 C
   C263       1.0     0.744257      0.431224      0.165485     Biso  1.000000 C
   C264       1.0     0.630926      0.500139      0.121825     Biso  1.000000 C
   C265       1.0     0.630113      0.592128      0.192663     Biso  1.000000 C
   C266       1.0     0.610594      0.538724      0.197773     Biso  1.000000 C
   C267       1.0     0.599373      0.694813      0.115854     Biso  1.000000 C
   C268       1.0     0.682782      0.597475      0.187182     Biso  1.000000 C
   C269       1.0     0.634779      0.615635      0.283266     Biso  1.000000 C
   C270       1.0     0.614014      0.620416      0.234155     Biso  1.000000 C
   C271       1.0     0.695825      0.729108      0.279274     Biso  1.000000 C
   C272       1.0     0.599403      0.611132      0.324060     Biso  1.000000 C
   C273       1.0     0.633774      0.349524      0.335727     Biso  1.000000 C
   C274       1.0     0.472878      0.289998      0.619936     Biso  1.000000 C
   C275       1.0     0.525326      0.246422      0.296875     Biso  1.000000 C
   C276       1.0     0.562407      0.192253      0.237558     Biso  1.000000 C
   C277       1.0     0.484776      0.409166      0.688491     Biso  1.000000 C
   C278       1.0     0.425521      0.287849      0.642055     Biso  1.000000 C
   C279       1.0     0.452358      0.320894      0.533461     Biso  1.000000 C
   C280       1.0     0.475765      0.284853      0.566719     Biso  1.000000 C
   C281       1.0     0.330891      0.274370      0.558945     Biso  1.000000 C
   C282       1.0     0.467036      0.374559      0.544648     Biso  1.000000 C
   C283       1.0     0.474814      0.261361      0.458111     Biso  1.000000 C
   C284       1.0     0.464809      0.312063      0.480748     Biso  1.000000 C
   C285       1.0     0.407604      0.163559      0.519838     Biso  1.000000 C
   C286       1.0     0.470989      0.273482      0.406181     Biso  1.000000 C
   C287       1.0     0.552140      0.203809      0.448003     Biso  1.000000 C
   C288       1.0     0.522774      0.244868      0.471765     Biso  1.000000 C
   C289       1.0     0.473093      0.099979      0.420083     Biso  1.000000 C
   C290       1.0     0.593615      0.201110      0.478111     Biso  1.000000 C
   C291       1.0     0.603205      0.191478      0.371190     Biso  1.000000 C
   C292       1.0     0.563170      0.211496      0.396518     Biso  1.000000 C
   C293       1.0     0.670814      0.078414      0.414435     Biso  1.000000 C
   C294       1.0     0.648348      0.221803      0.382592     Biso  1.000000 C
   C295       1.0     0.554033      0.197245      0.288441     Biso  1.000000 C
   C296       1.0     0.599708      0.195807      0.316548     Biso  1.000000 C
   C297       1.0     0.523950      0.066590      0.302343     Biso  1.000000 C
   C298       1.0     0.536353      0.297072      0.275750     Biso  1.000000 C
   C299       1.0     0.847024      0.034218      0.221335     Biso  1.000000 C
   C300       1.0     0.819728      0.987119      0.216963     Biso  1.000000 C
   C301       1.0     0.795292      0.074712      0.281108     Biso  1.000000 C
   C302       1.0     0.589076      0.899999      0.547700     Biso  1.000000 C
   C303       1.0     0.599695      0.888824      0.442229     Biso  1.000000 C
   C304       1.0     0.625363      0.861854      0.481680     Biso  1.000000 C
   C305       1.0     0.568694      0.017243      0.468023     Biso  1.000000 C
   C306       1.0     0.548368      0.870867      0.439463     Biso  1.000000 C
   C307       1.0     0.611124      0.878865      0.347169     Biso  1.000000 C
   C308       1.0     0.625279      0.869834      0.399223     Biso  1.000000 C
   C309       1.0     0.724498      0.841824      0.301883     Biso  1.000000 C
   C310       1.0     0.589924      0.929954      0.341474     Biso  1.000000 C
   C311       1.0     0.581222      0.787497      0.333652     Biso  1.000000 C
   C312       1.0     0.573899      0.842542      0.329443     Biso  1.000000 C
   C313       1.0     0.521880      0.722584      0.234635     Biso  1.000000 C
   C314       1.0     0.551457      0.763301      0.370860     Biso  1.000000 C
   C315       1.0     0.726628      0.413727      0.995421     Biso  1.000000 C
   C316       1.0     0.697112      0.441204      0.959819     Biso  1.000000 C
   C317       1.0     0.825429      0.437005      0.066427     Biso  1.000000 C
   C318       1.0     0.689806      0.403149      0.033917     Biso  1.000000 C
   C319       1.0     0.757951      0.342666      0.934103     Biso  1.000000 C
   C320       1.0     0.737803      0.359294      0.983455     Biso  1.000000 C
   C321       1.0     0.874460      0.380739      0.954436     Biso  1.000000 C
   C322       1.0     0.723158      0.353599      0.894813     Biso  1.000000 C
   C323       1.0     0.563914      0.726384      0.502696     Biso  1.000000 C
   C324       1.0     0.773456      0.241252      0.904969     Biso  1.000000 C
   C325       1.0     0.647745      0.841165      0.565171     Biso  1.000000 C
   C326       1.0     0.681191      0.835028      0.644114     Biso  1.000000 C
   C327       1.0     0.993318      0.562951      0.685922     Biso  1.000000 C
   C328       1.0     0.977686      0.642550      0.566342     Biso  1.000000 C
   C329       1.0     0.911708      0.716487      0.617684     Biso  1.000000 C
   C330       1.0     0.962428      0.716860      0.614479     Biso  1.000000 C
   C331       1.0     0.842107      0.648462      0.529980     Biso  1.000000 C
   C332       1.0     0.899147      0.767808      0.636033     Biso  1.000000 C
   C333       1.0     0.848900      0.678041      0.680740     Biso  1.000000 C
   C334       1.0     0.893292      0.677801      0.652712     Biso  1.000000 C
   C335       1.0     0.899271      0.723526      0.792917     Biso  1.000000 C
   C336       1.0     0.840378      0.625191      0.699318     Biso  1.000000 C
   C337       1.0     0.755981      0.682652      0.666376     Biso  1.000000 C
   C338       1.0     0.805666      0.691680      0.649377     Biso  1.000000 C
   C339       1.0     0.753285      0.557025      0.617197     Biso  1.000000 C
   C340       1.0     0.750414      0.702308      0.715928     Biso  1.000000 C
   C341       1.0     0.673339      0.710752      0.627541     Biso  1.000000 C
   C342       1.0     0.726012      0.711039      0.630838     Biso  1.000000 C
   C343       1.0     0.631208      0.580506      0.608610     Biso  1.000000 C
   C344       1.0     0.652314      0.710694      0.673612     Biso  1.000000 C
   C345       1.0     0.645303      0.811478      0.610243     Biso  1.000000 C
   C346       1.0     0.656042      0.755129      0.597725     Biso  1.000000 C
   C347       1.0     0.551949      0.871711      0.677403     Biso  1.000000 C
   C348       1.0     0.608611      0.853004      0.532277     Biso  1.000000 C
   C349       1.0     0.764044      0.284404      0.940786     Biso  1.000000 C
   C350       1.0     0.667799      0.240654      0.836652     Biso  1.000000 C
   C351       1.0     0.796903      0.200092      0.931953     Biso  1.000000 C
   C352       1.0     0.749456      0.536180      0.327939     Biso  1.000000 C
   C353       1.0     0.877830      0.501248      0.358193     Biso  1.000000 C
   C354       1.0     0.844512      0.404239      0.295460     Biso  1.000000 C
   C355       1.0     0.851874      0.416628      0.348966     Biso  1.000000 C
   C356       1.0     0.881059      0.506834      0.222506     Biso  1.000000 C
   C357       1.0     0.795199      0.413995      0.281119     Biso  1.000000 C
   C358       1.0     0.851174      0.316873      0.248149     Biso  1.000000 C
   C359       1.0     0.858138      0.349632      0.291111     Biso  1.000000 C
   C360       1.0     0.918736      0.369397      0.149531     Biso  1.000000 C
   C361       1.0     0.884218      0.273790      0.251195     Biso  1.000000 C
   C362       1.0     0.779797      0.258506      0.213472     Biso  1.000000 C
   C363       1.0     0.801439      0.297554      0.247578     Biso  1.000000 C
   C364       1.0     0.768378      0.294906      0.088220     Biso  1.000000 C
   C365       1.0     0.728508      0.265368      0.221219     Biso  1.000000 C
   C366       1.0     0.767256      0.157440      0.206028     Biso  1.000000 C
   C367       1.0     0.790888      0.203273      0.227592     Biso  1.000000 C
   C368       1.0     0.666644      0.091488      0.239725     Biso  1.000000 C
   C369       1.0     0.748424      0.164338      0.156434     Biso  1.000000 C
   C370       1.0     0.824682      0.081127      0.238589     Biso  1.000000 C
   C371       1.0     0.799107      0.112665      0.198964     Biso  1.000000 C
   C372       1.0     0.938455      0.139845      0.232178     Biso  1.000000 C
   C373       1.0     0.851221      0.451477      0.425516     Biso  1.000000 C
   C374       1.0     0.842860      0.465504      0.375753     Biso  1.000000 C
   C375       1.0     0.820893      0.522944      0.472861     Biso  1.000000 C
   C376       1.0     0.947181      0.588211      0.465903     Biso  1.000000 C
   C377       1.0     0.824122      0.227526      0.822835     Biso  1.000000 C
   C378       1.0     0.804772      0.259524      0.862238     Biso  1.000000 C
   C379       1.0     0.889855      0.120091      0.859523     Biso  1.000000 C
   C380       1.0     0.787056      0.192217      0.806367     Biso  1.000000 C
   C381       1.0     0.848250      0.243252      0.729854     Biso  1.000000 C
   C382       1.0     0.836982      0.261365      0.780499     Biso  1.000000 C
   C383       1.0     0.779053      0.165211      0.651994     Biso  1.000000 C
   C384       1.0     0.882027      0.200683      0.735475     Biso  1.000000 C
   C385       1.0     0.863959      0.341076      0.700481     Biso  1.000000 C
   C386       1.0     0.874095      0.285574      0.700723     Biso  1.000000 C
   C387       1.0     0.060818      0.480730      0.918374     Biso  1.000000 C
   C388       1.0     0.879190      0.409930      0.808518     Biso  1.000000 C
   C389       1.0     0.891949      0.418215      0.642661     Biso  1.000000 C
   C390       1.0     0.885598      0.362572      0.655719     Biso  1.000000 C
   C391       1.0     0.870083      0.511887      0.735342     Biso  1.000000 C
   C392       1.0     0.944866      0.427616      0.651871     Biso  1.000000 C
   C393       1.0     0.890143      0.466953      0.559465     Biso  1.000000 C
   C394       1.0     0.880249      0.421751      0.590546     Biso  1.000000 C
   C395       1.0     0.002535      0.429445      0.512318     Biso  1.000000 C
   C396       1.0     0.870819      0.513500      0.578080     Biso  1.000000 C
   C397       1.0     0.860566      0.487957      0.467019     Biso  1.000000 C
   C398       1.0     0.865018      0.455173      0.511808     Biso  1.000000 C
   C399       1.0     0.811421      0.351168      0.705197     Biso  1.000000 C
   C400       1.0     0.038731      0.434611      0.943161     Biso  1.000000 C
   C401       1.0     0.822511      0.771387      0.436040     Biso  1.000000 C
   C402       1.0     0.999189      0.446446      0.768825     Biso  1.000000 C
   C403       1.0     0.862459      0.454017      0.670737     Biso  1.000000 C
   C404       1.0     0.941369      0.468101      0.553726     Biso  1.000000 C
   C405       1.0     0.906175      0.513043      0.458625     Biso  1.000000 C
   C406       1.0     0.792174      0.483896      0.369149     Biso  1.000000 C
   C407       1.0     0.876256      0.434401      0.267686     Biso  1.000000 C
   C408       1.0     0.861568      0.345079      0.203074     Biso  1.000000 C
   C409       1.0     0.793011      0.266578      0.162116     Biso  1.000000 C
   C410       1.0     0.727188      0.145555      0.237803     Biso  1.000000 C
   C411       1.0     0.865189      0.111115      0.255546     Biso  1.000000 C
   C412       1.0     0.816767      0.958946      0.265216     Biso  1.000000 C
   C413       1.0     0.788553      0.890215      0.151892     Biso  1.000000 C
   C414       1.0     0.809696      0.780715      0.195276     Biso  1.000000 C
   C415       1.0     0.903981      0.746540      0.302526     Biso  1.000000 C
   C416       1.0     0.887883      0.721790      0.412795     Biso  1.000000 C
   C417       1.0     0.743789      0.733814      0.459129     Biso  1.000000 C
   C418       1.0     0.793859      0.893537      0.454025     Biso  1.000000 C
   C419       1.0     0.809391      0.925944      0.600321     Biso  1.000000 C
   C420       1.0     0.741571      0.989050      0.662106     Biso  1.000000 C
   C421       1.0     0.623996      0.077175      0.606772     Biso  1.000000 C
   C422       1.0     0.663167      0.107445      0.757465     Biso  1.000000 C
   C423       1.0     0.512990      0.105529      0.725084     Biso  1.000000 C
   C424       1.0     0.891095      0.363206      0.739439     Biso  1.000000 C
   C425       1.0     0.498399      0.252609      0.725404     Biso  1.000000 C
   C426       1.0     0.804949      0.226490      0.705639     Biso  1.000000 C
   C427       1.0     0.727302      0.223342      0.889631     Biso  1.000000 C
   C428       1.0     0.992525      0.276746      0.450133     Biso  1.000000 C
   C429       1.0     0.026196      0.329205      0.338452     Biso  1.000000 C
   C430       1.0     0.080440      0.467710      0.369880     Biso  1.000000 C
   C431       1.0     0.992605      0.581709      0.299536     Biso  1.000000 C
   C432       1.0     0.138392      0.606223      0.319600     Biso  1.000000 C
   C433       1.0     0.108523      0.743109      0.385126     Biso  1.000000 C
   C434       1.0     0.136650      0.785352      0.479424     Biso  1.000000 C
   C435       1.0     0.192910      0.708358      0.604040     Biso  1.000000 C
   C436       1.0     0.087170      0.621076      0.602757     Biso  1.000000 C
   C437       1.0     0.996132      0.642633      0.657179     Biso  1.000000 C
   C438       1.0     0.885504      0.705626      0.571571     Biso  1.000000 C
   C439       1.0     0.855984      0.709854      0.723087     Biso  1.000000 C
   C440       1.0     0.742934      0.627955      0.664719     Biso  1.000000 C
   C441       1.0     0.656889      0.664659      0.601376     Biso  1.000000 C
   C442       1.0     0.599376      0.817405      0.638503     Biso  1.000000 C
   C443       1.0     0.575179      0.809207      0.528514     Biso  1.000000 C
   C444       1.0     0.607020      0.944061      0.448289     Biso  1.000000 C
   C445       1.0     0.653027      0.877974      0.315197     Biso  1.000000 C
   C446       1.0     0.573152      0.764609      0.285879     Biso  1.000000 C
   C447       1.0     0.768515      0.439961      0.012523     Biso  1.000000 C
   C448       1.0     0.803619      0.363246      0.923025     Biso  1.000000 C
   C449       1.0     0.863809      0.198806      0.844848     Biso  1.000000 C
   C450       1.0     0.861116      0.225791      0.454505     Biso  1.000000 C
   C451       1.0     0.495267      0.335291      0.641082     Biso  1.000000 C
   C452       1.0     0.434448      0.227609      0.469360     Biso  1.000000 C
   C453       1.0     0.272450      0.414284      0.701948     Biso  1.000000 C
   C454       1.0     0.266987      0.366144      0.728915     Biso  1.000000 C
   C455       1.0     0.369278      0.438603      0.625278     Biso  1.000000 C
   C456       1.0     0.290006      0.456035      0.735574     Biso  1.000000 C
   C457       1.0     0.185916      0.449586      0.710212     Biso  1.000000 C
   C458       1.0     0.224343      0.425047      0.682472     Biso  1.000000 C
   C459       1.0     0.210251      0.578695      0.674133     Biso  1.000000 C
   C460       1.0     0.173174      0.424634      0.755389     Biso  1.000000 C
   C461       1.0     0.117989      0.410666      0.651562     Biso  1.000000 C
   C462       1.0     0.140623      0.450517      0.681258     Biso  1.000000 C
   C463       1.0     0.073697      0.348183      0.757692     Biso  1.000000 C
   C464       1.0     0.069681      0.432060      0.644985     Biso  1.000000 C
   C465       1.0     0.137397      0.360681      0.568808     Biso  1.000000 C
   C466       1.0     0.139856      0.404217      0.604238     Biso  1.000000 C
   C467       1.0     0.224092      0.281463      0.628531     Biso  1.000000 C
   C468       1.0     0.085984      0.347868      0.563844     Biso  1.000000 C
   C469       1.0     0.196186      0.395791      0.503057     Biso  1.000000 C
   C470       1.0     0.150035      0.372176      0.518198     Biso  1.000000 C
   C471       1.0     0.245905      0.511543      0.555825     Biso  1.000000 C
   C472       1.0     0.237219      0.365246      0.520358     Biso  1.000000 C
   C473       1.0     0.209983      0.360714      0.416429     Biso  1.000000 C
   C474       1.0     0.343780      0.328136      0.715918     Biso  1.000000 C
   C475       1.0     0.397137      0.322039      0.535547     Biso  1.000000 C
   C476       1.0     0.387138      0.406858      0.825815     Biso  1.000000 C
   C477       1.0     0.306938      0.335504      0.750912     Biso  1.000000 C
   C478       1.0     0.525635      0.154897      0.452804     Biso  1.000000 C
   C479       1.0     0.614544      0.135245      0.380942     Biso  1.000000 C
   C480       1.0     0.526733      0.151543      0.299873     Biso  1.000000 C
   C481       1.0     0.585988      0.313283      0.283310     Biso  1.000000 C
   C482       1.0     0.463998      0.360772      0.210036     Biso  1.000000 C
   C483       1.0     0.574455      0.406579      0.121539     Biso  1.000000 C
   C484       1.0     0.680772      0.480288      0.187342     Biso  1.000000 C
   C485       1.0     0.610611      0.619388      0.151351     Biso  1.000000 C
   C486       1.0     0.665659      0.654320      0.299488     Biso  1.000000 C
   C487       1.0     0.198889      0.133894      0.883748     Biso  1.000000 C
   C488       1.0     0.197195      0.079069      0.887545     Biso  1.000000 C
   C489       1.0     0.077663      0.168641      0.902005     Biso  1.000000 C
   C490       1.0     0.215577      0.153184      0.929269     Biso  1.000000 C
   C491       1.0     0.247720      0.198147      0.831678     Biso  1.000000 C
   C492       1.0     0.233571      0.146214      0.846441     Biso  1.000000 C
   C493       1.0     0.274008      0.294921      0.920052     Biso  1.000000 C
   C494       1.0     0.207491      0.228475      0.816506     Biso  1.000000 C
   C495       1.0     0.307785      0.233851      0.769962     Biso  1.000000 C
   C496       1.0     0.278342      0.192315      0.787532     Biso  1.000000 C
   C497       1.0     0.411530      0.186685      0.820702     Biso  1.000000 C
   C498       1.0     0.319258      0.218521      0.719007     Biso  1.000000 C
   C499       1.0     0.284539      0.286364      0.769254     Biso  1.000000 C
   C500       1.0     0.195031      0.400522      0.450834     Biso  1.000000 C
   C501       1.0     0.768214      0.279094      0.473603     Biso  1.000000 C
   C502       1.0     0.649584      0.427460      0.597048     Biso  1.000000 C
   C503       1.0     0.468416      0.660170      0.604629     Biso  1.000000 C
   C504       1.0     0.338361      0.672799      0.520151     Biso  1.000000 C
   C505       1.0     0.350038      0.792358      0.479261     Biso  1.000000 C
   C506       1.0     0.315714      0.889798      0.526966     Biso  1.000000 C
   C507       1.0     0.383299      0.996903      0.575848     Biso  1.000000 C
   C508       1.0     0.336987      0.908929      0.706959     Biso  1.000000 C
   C509       1.0     0.335641      0.045437      0.789706     Biso  1.000000 C
   C510       1.0     0.197613      0.985470      0.732835     Biso  1.000000 C
   C511       1.0     0.183722      0.129684      0.647931     Biso  1.000000 C
   C512       1.0     0.225428      0.153474      0.545744     Biso  1.000000 C
   C513       1.0     0.254463      0.120577      0.446771     Biso  1.000000 C
   C514       1.0     0.251746      0.978714      0.391367     Biso  1.000000 C
   C515       1.0     0.324738      0.957178      0.311733     Biso  1.000000 C
   C516       1.0     0.437590      0.851692      0.340963     Biso  1.000000 C
   C517       1.0     0.423810      0.919297      0.189567     Biso  1.000000 C
   C518       1.0     0.298537      0.001260      0.038238     Biso  1.000000 C
   C519       1.0     0.349528      0.877029      0.974755     Biso  1.000000 C
   C520       1.0     0.450201      0.009357      0.010414     Biso  1.000000 C
   C521       1.0     0.549018      0.907712      0.028406     Biso  1.000000 C
   C522       1.0     0.599001      0.010023      0.123894     Biso  1.000000 C
   C523       1.0     0.659107      0.100370      0.033962     Biso  1.000000 C
   C524       1.0     0.439201      0.527091      0.524526     Biso  1.000000 C
   C525       1.0     0.607141      0.230406      0.092285     Biso  1.000000 C
   C526       1.0     0.558833      0.570646      0.448898     Biso  1.000000 C
   C527       1.0     0.396430      0.605854      0.279639     Biso  1.000000 C
   C528       1.0     0.989282      0.524990      0.886756     Biso  1.000000 C
   C529       1.0     0.273810      0.222973      0.869458     Biso  1.000000 C
   C530       1.0     0.351920      0.236253      0.796725     Biso  1.000000 C
   C531       1.0     0.325327      0.365564      0.792628     Biso  1.000000 C
   C532       1.0     0.303468      0.410376      0.659176     Biso  1.000000 C
   C533       1.0     0.190465      0.507160      0.714931     Biso  1.000000 C
   C534       1.0     0.111340      0.365405      0.683959     Biso  1.000000 C
   C535       1.0     0.162355      0.315472      0.586654     Biso  1.000000 C
   C536       1.0     0.199717      0.449539      0.519994     Biso  1.000000 C
   C537       1.0     0.260234      0.351639      0.421297     Biso  1.000000 C
   C538       1.0     0.273760      0.401272      0.323233     Biso  1.000000 C
   C539       1.0     0.260988      0.403982      0.215483     Biso  1.000000 C
   C540       1.0     0.125124      0.398751      0.151426     Biso  1.000000 C
   C541       1.0     0.057609      0.484287      0.132492     Biso  1.000000 C
   C542       1.0     0.093648      0.620916      0.068387     Biso  1.000000 C
   C543       1.0     0.099128      0.730014      0.099226     Biso  1.000000 C
   C544       1.0     0.137618      0.810163      0.163294     Biso  1.000000 C
   C545       1.0     0.248343      0.766591      0.259534     Biso  1.000000 C
   C546       1.0     0.300142      0.747790      0.105398     Biso  1.000000 C
   C547       1.0     0.430077      0.716487      0.145659     Biso  1.000000 C
   C548       1.0     0.408726      0.549490      0.153403     Biso  1.000000 C
   C549       1.0     0.466661      0.489764      0.347105     Biso  1.000000 C
   C550       1.0     0.699929      0.362217      0.517106     Biso  1.000000 C
   C551       1.0     0.541502      0.203530      0.950918     Biso  1.000000 C
   C552       1.0     0.422145      0.325028      0.024285     Biso  1.000000 C
   C553       1.0     0.144230      0.154691      0.220046     Biso  1.000000 C
   C554       1.0     0.294039      0.147989      0.269442     Biso  1.000000 C
   C555       1.0     0.339707      0.170137      0.175205     Biso  1.000000 C
   C556       1.0     0.235052      0.244531      0.077461     Biso  1.000000 C
   C557       1.0     0.872019      0.586907      0.117368     Biso  1.000000 C
   C558       1.0     0.907330      0.653610      0.024064     Biso  1.000000 C
   C559       1.0     0.927562      0.810576      0.016756     Biso  1.000000 C
   C560       1.0     0.822866      0.827251      0.923590     Biso  1.000000 C
   C561       1.0     0.758775      0.952490      0.980601     Biso  1.000000 C
   C562       1.0     0.724545      0.923024      0.834968     Biso  1.000000 C
   C563       1.0     0.624144      0.859477      0.805884     Biso  1.000000 C
   C564       1.0     0.505008      0.899387      0.832151     Biso  1.000000 C
   C565       1.0     0.502934      0.767435      0.755375     Biso  1.000000 C
   C566       1.0     0.501872      0.651965      0.812311     Biso  1.000000 C
   C567       1.0     0.457363      0.708948      0.944624     Biso  1.000000 C
   C568       1.0     0.526753      0.570207      0.978716     Biso  1.000000 C
   C569       1.0     0.651580      0.655106      0.001598     Biso  1.000000 C
   C570       1.0     0.687428      0.657269      0.895411     Biso  1.000000 C
   C571       1.0     0.798897      0.562013      0.846169     Biso  1.000000 C
   C572       1.0     0.673232      0.486225      0.814581     Biso  1.000000 C
   C573       1.0     0.671326      0.394328      0.746223     Biso  1.000000 C
   C574       1.0     0.102497      0.006886      0.253093     Biso  1.000000 C
   C575       1.0     0.527825      0.354545      0.908643     Biso  1.000000 C
   C576       1.0     0.060497      0.977033      0.355873     Biso  1.000000 C
   C577       1.0     0.905987      0.011251      0.462191     Biso  1.000000 C
   C578       1.0     0.321653      0.393520      0.025439     Biso  1.000000 C
   C579       1.0     0.322025      0.515043      0.973183     Biso  1.000000 C
   C580       1.0     0.233823      0.574254      0.905938     Biso  1.000000 C
   C581       1.0     0.325271      0.580850      0.776174     Biso  1.000000 C
   C582       1.0     0.304265      0.721718      0.828105     Biso  1.000000 C
   C583       1.0     0.168756      0.768159      0.779859     Biso  1.000000 C
   C584       1.0     0.103666      0.712962      0.862612     Biso  1.000000 C
   C585       1.0     0.025292      0.633501      0.854964     Biso  1.000000 C
   C586       1.0     0.039672      0.473108      0.834267     Biso  1.000000 C
   C587       1.0     0.991349      0.447848      0.964392     Biso  1.000000 C
   C588       1.0     0.084168      0.323314      0.933770     Biso  1.000000 C
   C589       1.0     0.945694      0.285777      0.014136     Biso  1.000000 C
   C590       1.0     0.001108      0.225226      0.094167     Biso  1.000000 C
   C591       1.0     0.044318      0.085663      0.046700     Biso  1.000000 C
   C592       1.0     0.941885      0.010722      0.056186     Biso  1.000000 C
   C593       1.0     0.946434      0.984456      0.907582     Biso  1.000000 C
   C594       1.0     0.090657      0.950415      0.864313     Biso  1.000000 C
   C595       1.0     0.034597      0.015555      0.749292     Biso  1.000000 C
   C596       1.0     0.954071      0.880626      0.714479     Biso  1.000000 C
   C597       1.0     0.021360      0.885987      0.622369     Biso  1.000000 C
   C598       1.0     0.054936      0.000196      0.528561     Biso  1.000000 C
   C599       1.0     0.970956      0.061159      0.370911     Biso  1.000000 C
   C600       1.0     0.316099      0.290559      0.426626     Biso  1.000000 C
   C601       1.0     0.161622      0.935120      0.040668     Biso  1.000000 C
   C602       1.0     0.227251      0.377769      0.324380     Biso  1.000000 C
   C603       1.0     0.262700      0.936678      0.988763     Biso  1.000000 C
   C604       1.0     0.364273      0.899604      0.020971     Biso  1.000000 C
   C605       1.0     0.320008      0.909371      0.051253     Biso  1.000000 C
   C606       1.0     0.357963      0.893950      0.892540     Biso  1.000000 C
   C607       1.0     0.391235      0.861303      0.047643     Biso  1.000000 C
   C608       1.0     0.445703      0.954287      0.013394     Biso  1.000000 C
   C609       1.0     0.393050      0.947509      0.020604     Biso  1.000000 C
   C610       1.0     0.432110      0.083532      0.049310     Biso  1.000000 C
   C611       1.0     0.458847      0.931516      0.967467     Biso  1.000000 C
   C612       1.0     0.527216      0.939130      0.065468     Biso  1.000000 C
   C613       1.0     0.475109      0.936544      0.056115     Biso  1.000000 C
   C614       1.0     0.559251      0.824903      0.008706     Biso  1.000000 C
   C615       1.0     0.539405      0.918746      0.111822     Biso  1.000000 C
   C616       1.0     0.591043      0.015559      0.072793     Biso  1.000000 C
   C617       1.0     0.541733      0.994505      0.063964     Biso  1.000000 C
   C618       1.0     0.643786      0.965691      0.180421     Biso  1.000000 C
   C619       1.0     0.629801      0.992379      0.045220     Biso  1.000000 C
   C620       1.0     0.615361      0.112926      0.060630     Biso  1.000000 C
   C621       1.0     0.580173      0.069839      0.061456     Biso  1.000000 C
   C622       1.0     0.688316      0.085644      0.960853     Biso  1.000000 C
   C623       1.0     0.629918      0.121653      0.112571     Biso  1.000000 C
   C624       1.0     0.302597      0.076363      0.996102     Biso  1.000000 C
   C625       1.0     0.605362      0.211272      0.041804     Biso  1.000000 C
   C626       1.0     0.244434      0.939007      0.073167     Biso  1.000000 C
   C627       1.0     0.195386      0.017526      0.064525     Biso  1.000000 C
   C628       1.0     0.213879      0.172141      0.396038     Biso  1.000000 C
   C629       1.0     0.213048      0.040112      0.478566     Biso  1.000000 C
   C630       1.0     0.291473      0.013367      0.400972     Biso  1.000000 C
   C631       1.0     0.291118      0.032936      0.452977     Biso  1.000000 C
   C632       1.0     0.208278      0.913570      0.418596     Biso  1.000000 C
   C633       1.0     0.289872      0.056062      0.367907     Biso  1.000000 C
   C634       1.0     0.360917      0.971234      0.349306     Biso  1.000000 C
   C635       1.0     0.336324      0.983953      0.396691     Biso  1.000000 C
   C636       1.0     0.287252      0.989861      0.240950     Biso  1.000000 C
   C637       1.0     0.390538      0.017203      0.334761     Biso  1.000000 C
   C638       1.0     0.427330      0.903550      0.327272     Biso  1.000000 C
   C639       1.0     0.391831      0.924542      0.361670     Biso  1.000000 C
   C640       1.0     0.425066      0.766210      0.322897     Biso  1.000000 C
   C641       1.0     0.470098      0.936283      0.335894     Biso  1.000000 C
   C642       1.0     0.445542      0.901981      0.235350     Biso  1.000000 C
   C643       1.0     0.410783      0.904817      0.276066     Biso  1.000000 C
   C644       1.0     0.383936      0.986948      0.154917     Biso  1.000000 C
   C645       1.0     0.472322      0.854268      0.226833     Biso  1.000000 C
   C646       1.0     0.194585      0.962043      0.073681     Biso  1.000000 C
   C647       1.0     0.174246      0.950918      0.122026     Biso  1.000000 C
   C648       1.0     0.086684      0.935265      0.014483     Biso  1.000000 C
   C649       1.0     0.281431      0.945829      0.035738     Biso  1.000000 C
   C650       1.0     0.274514      0.081113      0.524312     Biso  1.000000 C
   C651       1.0     0.591240      0.157900      0.039222     Biso  1.000000 C
   C652       1.0     0.654173      0.214202      0.021318     Biso  1.000000 C
   C653       1.0     0.389322      0.544838      0.741293     Biso  1.000000 C
   C654       1.0     0.332757      0.600956      0.858400     Biso  1.000000 C
   C655       1.0     0.281210      0.689716      0.790846     Biso  1.000000 C
   C656       1.0     0.268287      0.638761      0.808463     Biso  1.000000 C
   C657       1.0     0.318273      0.729173      0.907949     Biso  1.000000 C
   C658       1.0     0.308767      0.689328      0.743123     Biso  1.000000 C
   C659       1.0     0.193835      0.729036      0.807160     Biso  1.000000 C
   C660       1.0     0.237366      0.718421      0.776474     Biso  1.000000 C
   C661       1.0     0.133150      0.847526      0.783245     Biso  1.000000 C
   C662       1.0     0.205847      0.747547      0.854021     Biso  1.000000 C
   C663       1.0     0.112948      0.681710      0.820385     Biso  1.000000 C
   C664       1.0     0.163688      0.681047      0.811114     Biso  1.000000 C
   C665       1.0     0.063843      0.783787      0.886436     Biso  1.000000 C
   C666       1.0     0.087766      0.698457      0.778692     Biso  1.000000 C
   C667       1.0     0.058152      0.599594      0.835260     Biso  1.000000 C
   C668       1.0     0.104933      0.624763      0.830391     Biso  1.000000 C
   C669       1.0     0.008899      0.663431      0.926829     Biso  1.000000 C
   C670       1.0     0.043728      0.579010      0.788192     Biso  1.000000 C
   C671       1.0     0.038108      0.507671      0.876188     Biso  1.000000 C
   C672       1.0     0.181059      0.315258      0.424904     Biso  1.000000 C
   C673       1.0     0.069872      0.553536      0.868219     Biso  1.000000 C
   C674       1.0     0.265594      0.548917      0.828095     Biso  1.000000 C
   C675       1.0     0.638745      0.286878      0.141283     Biso  1.000000 C
   C676       1.0     0.207083      0.501038      0.869560     Biso  1.000000 C
   C677       1.0     0.285986      0.492282      0.895932     Biso  1.000000 C
   C678       1.0     0.555744      0.252873      0.971901     Biso  1.000000 C
   C679       1.0     0.568406      0.246483      0.023761     Biso  1.000000 C
   C680       1.0     0.565435      0.140769      0.905448     Biso  1.000000 C
   C681       1.0     0.595498      0.275446      0.947237     Biso  1.000000 C
   C682       1.0     0.493505      0.318206      0.929609     Biso  1.000000 C
   C683       1.0     0.512718      0.290117      0.971761     Biso  1.000000 C
   C684       1.0     0.577406      0.419820      0.927275     Biso  1.000000 C
   C685       1.0     0.479849      0.287284      0.888188     Biso  1.000000 C
   C686       1.0     0.412160      0.325539      0.972721     Biso  1.000000 C
   C687       1.0     0.449015      0.348502      0.942361     Biso  1.000000 C
   C688       1.0     0.400714      0.277789      0.090775     Biso  1.000000 C
   C689       1.0     0.400382      0.273863      0.956797     Biso  1.000000 C
   C690       1.0     0.351495      0.405224      0.984187     Biso  1.000000 C
   C691       1.0     0.366635      0.351444      0.962803     Biso  1.000000 C
   C692       1.0     0.319516      0.398979      0.104398     Biso  1.000000 C
   C693       1.0     0.393308      0.436933      0.992267     Biso  1.000000 C
   C694       1.0     0.294759      0.476908      0.947611     Biso  1.000000 C
   C695       1.0     0.322581      0.431111      0.944253     Biso  1.000000 C
   C696       1.0     0.335859      0.561919      0.039987     Biso  1.000000 C
   C697       1.0     0.248574      0.465428      0.971486     Biso  1.000000 C
   C698       1.0     0.250470      0.531007      0.875817     Biso  1.000000 C
   C699       1.0     0.247332      0.621949      0.971064     Biso  1.000000 C
   C700       1.0     0.257672      0.071560      0.473956     Biso  1.000000 C
   C701       1.0     0.298500      0.592754      0.819620     Biso  1.000000 C
   C702       1.0     0.161739      0.179625      0.504374     Biso  1.000000 C
   C703       1.0     0.145667      0.771405      0.243447     Biso  1.000000 C
   C704       1.0     0.249717      0.754372      0.207307     Biso  1.000000 C
   C705       1.0     0.210714      0.778759      0.184439     Biso  1.000000 C
   C706       1.0     0.234372      0.826983      0.317803     Biso  1.000000 C
   C707       1.0     0.242220      0.699135      0.203197     Biso  1.000000 C
   C708       1.0     0.325401      0.756223      0.152185     Biso  1.000000 C
   C709       1.0     0.295395      0.778107      0.189788     Biso  1.000000 C
   C710       1.0     0.270246      0.786106      0.038000     Biso  1.000000 C
   C711       1.0     0.361654      0.797850      0.146874     Biso  1.000000 C
   C712       1.0     0.391181      0.683982      0.145118     Biso  1.000000 C
   C713       1.0     0.348721      0.709495      0.168901     Biso  1.000000 C
   C714       1.0     0.470862      0.774937      0.099733     Biso  1.000000 C
   C715       1.0     0.386023      0.661551      0.095399     Biso  1.000000 C
   C716       1.0     0.432354      0.596152      0.172963     Biso  1.000000 C
   C717       1.0     0.400342      0.641246      0.178717     Biso  1.000000 C
   C718       1.0     0.419371      0.472449      0.123244     Biso  1.000000 C
   C719       1.0     0.470811      0.605687      0.139157     Biso  1.000000 C
   C720       1.0     0.433222      0.572797      0.266601     Biso  1.000000 C
   C721       1.0     0.455397      0.590414      0.221311     Biso  1.000000 C
   C722       1.0     0.314699      0.612657      0.281149     Biso  1.000000 C
   C723       1.0     0.413041      0.519625      0.258503     Biso  1.000000 C
   C724       1.0     0.084952      0.873750      0.165379     Biso  1.000000 C
   C725       1.0     0.146160      0.719515      0.169816     Biso  1.000000 C
   C726       1.0     0.160188      0.768058      0.191809     Biso  1.000000 C
   C727       1.0     0.057981      0.734962      0.173606     Biso  1.000000 C
   C728       1.0     0.315292      0.472420      0.341542     Biso  1.000000 C
   C729       1.0     0.200169      0.385496      0.368404     Biso  1.000000 C
   C730       1.0     0.285658      0.123435      0.599862     Biso  1.000000 C
   C731       1.0     0.230192      0.322300      0.313465     Biso  1.000000 C
   C732       1.0     0.211002      0.392089      0.228674     Biso  1.000000 C
   C733       1.0     0.201877      0.401044      0.282330     Biso  1.000000 C
   C734       1.0     0.314672      0.471115      0.210209     Biso  1.000000 C
   C735       1.0     0.198765      0.340033      0.211716     Biso  1.000000 C
   C736       1.0     0.161189      0.439657      0.159428     Biso  1.000000 C
   C737       1.0     0.179770      0.435632      0.209709     Biso  1.000000 C
   C738       1.0     0.462890      0.545360      0.352528     Biso  1.000000 C
   C739       1.0     0.093226      0.339667      0.102751     Biso  1.000000 C
   C740       1.0     0.102950      0.510522      0.126000     Biso  1.000000 C
   C741       1.0     0.001175      0.463972      0.186658     Biso  1.000000 C
   C742       1.0     0.116814      0.503675      0.076240     Biso  1.000000 C
   C743       1.0     0.106926      0.613360      0.117997     Biso  1.000000 C
   C744       1.0     0.087019      0.564234      0.139382     Biso  1.000000 C
   C745       1.0     0.114221      0.613892      0.990376     Biso  1.000000 C
   C746       1.0     0.158098      0.611947      0.125598     Biso  1.000000 C
   C747       1.0     0.097939      0.710597      0.148497     Biso  1.000000 C
   C748       1.0     0.088402      0.654563      0.148197     Biso  1.000000 C
   C749       1.0     0.140824      0.744417      0.031281     Biso  1.000000 C
   C750       1.0     0.197941      0.438664      0.123649     Biso  1.000000 C
   C751       1.0     0.470085      0.571866      0.304816     Biso  1.000000 C
   C752       1.0     0.140164      0.490855      0.159973     Biso  1.000000 C
   C753       1.0     0.414970      0.560789      0.374110     Biso  1.000000 C
   C754       1.0     0.368832      0.906035      0.593105     Biso  1.000000 C
   C755       1.0     0.456395      0.015200      0.544559     Biso  1.000000 C
   C756       1.0     0.309645      0.974378      0.609692     Biso  1.000000 C
   C757       1.0     0.354965      0.960649      0.706187     Biso  1.000000 C
   C758       1.0     0.378014      0.972317      0.657669     Biso  1.000000 C
   C759       1.0     0.360867      0.826780      0.716262     Biso  1.000000 C
   C760       1.0     0.396259      0.968575      0.738272     Biso  1.000000 C
   C761       1.0     0.298932      0.010331      0.765651     Biso  1.000000 C
   C762       1.0     0.314311      0.999077      0.715493     Biso  1.000000 C
   C763       1.0     0.369586      0.064271      0.859764     Biso  1.000000 C
   C764       1.0     0.292769      0.962170      0.793731     Biso  1.000000 C
   C765       1.0     0.216418      0.039446      0.728850     Biso  1.000000 C
   C766       1.0     0.190810      0.909106      0.692666     Biso  1.000000 C
   C767       1.0     0.175894      0.074625      0.745702     Biso  1.000000 C
   C768       1.0     0.195560      0.074929      0.638326     Biso  1.000000 C
   C769       1.0     0.228922      0.052585      0.677318     Biso  1.000000 C
   C770       1.0     0.117608      0.184791      0.649098     Biso  1.000000 C
   C771       1.0     0.217691      0.068973      0.588981     Biso  1.000000 C
   C772       1.0     0.430747      0.417241      0.370731     Biso  1.000000 C
   C773       1.0     0.154671      0.042424      0.635635     Biso  1.000000 C
   C774       1.0     0.248893      0.105145      0.566185     Biso  1.000000 C
   C775       1.0     0.358840      0.961083      0.608997     Biso  1.000000 C
   C776       1.0     0.395006      0.908654      0.508552     Biso  1.000000 C
   C777       1.0     0.256232      0.044945      0.764103     Biso  1.000000 C
   C778       1.0     0.381316      0.829388      0.553174     Biso  1.000000 C
   C779       1.0     0.502304      0.562031      0.384065     Biso  1.000000 C
   C780       1.0     0.464923      0.576022      0.518943     Biso  1.000000 C
   C781       1.0     0.476874      0.585140      0.466757     Biso  1.000000 C
   C782       1.0     0.382455      0.477415      0.492925     Biso  1.000000 C
   C783       1.0     0.632136      0.558724      0.476546     Biso  1.000000 C
   C784       1.0     0.507965      0.571848      0.546747     Biso  1.000000 C
   C785       1.0     0.504180      0.495774      0.450949     Biso  1.000000 C
   C786       1.0     0.425260      0.632081      0.590005     Biso  1.000000 C
   C787       1.0     0.429852      0.617391      0.538279     Biso  1.000000 C
   C788       1.0     0.415358      0.588657      0.622131     Biso  1.000000 C
   C789       1.0     0.509757      0.551171      0.439218     Biso  1.000000 C
   C790       1.0     0.523176      0.660257      0.661126     Biso  1.000000 C
   C791       1.0     0.381621      0.666687      0.594388     Biso  1.000000 C
   C792       1.0     0.327200      0.657674      0.439344     Biso  1.000000 C
   C793       1.0     0.321164      0.729688      0.582819     Biso  1.000000 C
   C794       1.0     0.390112      0.791684      0.514506     Biso  1.000000 C
   C795       1.0     0.398252      0.740139      0.536149     Biso  1.000000 C
   C796       1.0     0.325130      0.819701      0.405119     Biso  1.000000 C
   C797       1.0     0.436632      0.803751      0.492418     Biso  1.000000 C
   C798       1.0     0.365382      0.884397      0.544753     Biso  1.000000 C
   C799       1.0     0.361091      0.702540      0.556774     Biso  1.000000 C
   C800       1.0     0.237008      0.872873      0.544359     Biso  1.000000 C
   H1         1.0     0.059991      0.884890      0.192901     Biso  1.000000 H
   H2         1.0     0.266870      0.823425      0.024850     Biso  1.000000 H
   H3         1.0     0.275646      0.755343      0.012588     Biso  1.000000 H
   H4         1.0     0.225529      0.866259      0.317136     Biso  1.000000 H
   H5         1.0     0.264930      0.817760      0.335387     Biso  1.000000 H
   H6         1.0     0.207799      0.805446      0.336421     Biso  1.000000 H
   H7         1.0     0.097101      0.583883      0.975647     Biso  1.000000 H
   H8         1.0     0.098813      0.903481      0.145349     Biso  1.000000 H
   H9         1.0     0.112533      0.741896      0.009386     Biso  1.000000 H
   H10        1.0     0.169912      0.727373      0.017307     Biso  1.000000 H
   H11        1.0     0.149848      0.781958      0.037939     Biso  1.000000 H
   H12        1.0     0.144981      0.614403      0.972401     Biso  1.000000 H
   H13        1.0     0.097982      0.648770      0.983993     Biso  1.000000 H
   H14        1.0     0.975790      0.480791      0.166073     Biso  1.000000 H
   H15        1.0     0.063103      0.857992      0.139439     Biso  1.000000 H
   H16        1.0     0.234526      0.774637      0.044563     Biso  1.000000 H
   H17        1.0     0.284650      0.597377      0.262691     Biso  1.000000 H
   H18        1.0     0.488136      0.788334      0.131471     Biso  1.000000 H
   H19        1.0     0.405782      0.448645      0.483037     Biso  1.000000 H
   H20        1.0     0.356134      0.477868      0.470806     Biso  1.000000 H
   H21        1.0     0.369345      0.470579      0.526932     Biso  1.000000 H
   H22        1.0     0.991027      0.470090      0.220716     Biso  1.000000 H
   H23        1.0     0.538795      0.694502      0.651905     Biso  1.000000 H
   H24        1.0     0.651373      0.578720      0.450745     Biso  1.000000 H
   H25        1.0     0.649983      0.527928      0.489532     Biso  1.000000 H
   H26        1.0     0.625875      0.587940      0.504044     Biso  1.000000 H
   H27        1.0     0.457262      0.403203      0.390934     Biso  1.000000 H
   H28        1.0     0.431979      0.399022      0.338456     Biso  1.000000 H
   H29        1.0     0.400232      0.408590      0.387940     Biso  1.000000 H
   H30        1.0     0.317774      0.651911      0.273004     Biso  1.000000 H
   H31        1.0     0.308988      0.609027      0.319052     Biso  1.000000 H
   H32        1.0     0.402821      0.454549      0.150749     Biso  1.000000 H
   H33        1.0     0.446517      0.453343      0.107399     Biso  1.000000 H
   H34        1.0     0.393753      0.482034      0.096835     Biso  1.000000 H
   H35        1.0     0.500020      0.772119      0.076134     Biso  1.000000 H
   H36        1.0     0.448208      0.805686      0.090285     Biso  1.000000 H
   H37        1.0     0.001274      0.424786      0.181633     Biso  1.000000 H
   H38        1.0     0.225040      0.590012      0.705193     Biso  1.000000 H
   H39        1.0     0.107508      0.307335      0.115731     Biso  1.000000 H
   H40        1.0     0.393750      0.468580      0.623849     Biso  1.000000 H
   H41        1.0     0.351763      0.438346      0.592567     Biso  1.000000 H
   H42        1.0     0.389295      0.406047      0.624992     Biso  1.000000 H
   H43        1.0     0.363473      0.431575      0.844352     Biso  1.000000 H
   H44        1.0     0.412863      0.433212      0.812951     Biso  1.000000 H
   H45        1.0     0.400242      0.377120      0.844903     Biso  1.000000 H
   H46        1.0     0.398865      0.183262      0.856131     Biso  1.000000 H
   H47        1.0     0.234050      0.592124      0.648390     Biso  1.000000 H
   H48        1.0     0.439235      0.213449      0.822617     Biso  1.000000 H
   H49        1.0     0.251954      0.324470      0.923900     Biso  1.000000 H
   H50        1.0     0.306409      0.312128      0.913992     Biso  1.000000 H
   H51        1.0     0.267121      0.272772      0.949125     Biso  1.000000 H
   H52        1.0     0.516745      0.655428      0.697045     Biso  1.000000 H
   H53        1.0     0.071858      0.193988      0.873827     Biso  1.000000 H
   H54        1.0     0.067923      0.186298      0.934229     Biso  1.000000 H
   H55        1.0     0.056494      0.137313      0.894554     Biso  1.000000 H
   H56        1.0     0.426359      0.151890      0.809633     Biso  1.000000 H
   H57        1.0     0.176212      0.591562      0.664913     Biso  1.000000 H
   H58        1.0     0.093631      0.316442      0.755386     Biso  1.000000 H
   H59        1.0     0.083726      0.369654      0.787562     Biso  1.000000 H
   H60        1.0     0.085967      0.336461      0.067285     Biso  1.000000 H
   H61        1.0     0.321479      0.467312      0.173705     Biso  1.000000 H
   H62        1.0     0.341255      0.451340      0.228674     Biso  1.000000 H
   H63        1.0     0.317004      0.509631      0.217606     Biso  1.000000 H
   H64        1.0     0.314662      0.510942      0.347006     Biso  1.000000 H
   H65        1.0     0.336277      0.463845      0.310338     Biso  1.000000 H
   H66        1.0     0.333675      0.462342      0.372596     Biso  1.000000 H
   H67        1.0     0.336709      0.301405      0.455182     Biso  1.000000 H
   H68        1.0     0.333869      0.300191      0.393469     Biso  1.000000 H
   H69        1.0     0.310974      0.251109      0.426051     Biso  1.000000 H
   H70        1.0     0.246745      0.529692      0.521808     Biso  1.000000 H
   H71        1.0     0.278912      0.511971      0.571507     Biso  1.000000 H
   H72        1.0     0.222725      0.532033      0.579757     Biso  1.000000 H
   H73        1.0     0.208154      0.269776      0.657778     Biso  1.000000 H
   H74        1.0     0.259286      0.292787      0.631746     Biso  1.000000 H
   H75        1.0     0.226654      0.250461      0.606650     Biso  1.000000 H
   H76        1.0     0.036272      0.345017      0.759707     Biso  1.000000 H
   H77        1.0     0.060989      0.342380      0.118572     Biso  1.000000 H
   H78        1.0     0.540969      0.627383      0.650565     Biso  1.000000 H
   H79        1.0     0.336277      0.079758      0.002822     Biso  1.000000 H
   H80        1.0     0.319231      0.617696      0.437591     Biso  1.000000 H
   H81        1.0     0.678675      0.954552      0.183837     Biso  1.000000 H
   H82        1.0     0.625557      0.932878      0.185620     Biso  1.000000 H
   H83        1.0     0.634159      0.991227      0.205946     Biso  1.000000 H
   H84        1.0     0.560678      0.791282      0.023724     Biso  1.000000 H
   H85        1.0     0.590463      0.832435      0.992019     Biso  1.000000 H
   H86        1.0     0.531064      0.821469      0.984738     Biso  1.000000 H
   H87        1.0     0.420272      0.092071      0.083320     Biso  1.000000 H
   H88        1.0     0.679459      0.088220      0.925125     Biso  1.000000 H
   H89        1.0     0.409688      0.100236      0.024721     Biso  1.000000 H
   H90        1.0     0.347887      0.855924      0.882666     Biso  1.000000 H
   H91        1.0     0.393084      0.895156      0.879784     Biso  1.000000 H
   H92        1.0     0.337004      0.919108      0.875626     Biso  1.000000 H
   H93        1.0     0.284774      0.097939      0.022513     Biso  1.000000 H
   H94        1.0     0.295449      0.093752      0.962813     Biso  1.000000 H
   H95        1.0     0.094609      0.910548      0.985752     Biso  1.000000 H
   H96        1.0     0.059425      0.958058      0.006926     Biso  1.000000 H
   H97        1.0     0.464240      0.101993      0.042311     Biso  1.000000 H
   H98        1.0     0.078799      0.905013      0.037303     Biso  1.000000 H
   H99        1.0     0.713367      0.112665      0.967777     Biso  1.000000 H
   H100       1.0     0.669585      0.312005      0.143927     Biso  1.000000 H
   H101       1.0     0.315671      0.570881      0.070000     Biso  1.000000 H
   H102       1.0     0.346866      0.408249      0.128919     Biso  1.000000 H
   H103       1.0     0.648850      0.579347      0.282878     Biso  1.000000 H
   H104       1.0     0.304168      0.362601      0.114724     Biso  1.000000 H
   H105       1.0     0.294534      0.425833      0.107518     Biso  1.000000 H
   H106       1.0     0.384649      0.243194      0.094422     Biso  1.000000 H
   H107       1.0     0.383360      0.301474      0.114258     Biso  1.000000 H
   H108       1.0     0.706645      0.053237      0.962418     Biso  1.000000 H
   H109       1.0     0.434917      0.273192      0.102656     Biso  1.000000 H
   H110       1.0     0.580428      0.442131      0.956212     Biso  1.000000 H
   H111       1.0     0.571575      0.438501      0.896565     Biso  1.000000 H
   H112       1.0     0.597172      0.134803      0.894499     Biso  1.000000 H
   H113       1.0     0.542138      0.130756      0.879590     Biso  1.000000 H
   H114       1.0     0.556923      0.116599      0.934059     Biso  1.000000 H
   H115       1.0     0.643233      0.262640      0.167577     Biso  1.000000 H
   H116       1.0     0.609499      0.305245      0.147877     Biso  1.000000 H
   H117       1.0     0.608149      0.398591      0.919681     Biso  1.000000 H
   H118       1.0     0.368772      0.019652      0.169329     Biso  1.000000 H
   H119       1.0     0.355300      0.966731      0.141889     Biso  1.000000 H
   H120       1.0     0.403970      0.000508      0.124918     Biso  1.000000 H
   H121       1.0     0.370393      0.044738      0.892230     Biso  1.000000 H
   H122       1.0     0.357846      0.104214      0.860669     Biso  1.000000 H
   H123       1.0     0.402858      0.061837      0.842671     Biso  1.000000 H
   H124       1.0     0.348292      0.810134      0.686041     Biso  1.000000 H
   H125       1.0     0.337527      0.810409      0.739146     Biso  1.000000 H
   H126       1.0     0.393717      0.810109      0.720688     Biso  1.000000 H
   H127       1.0     0.446339      0.008242      0.509930     Biso  1.000000 H
   H128       1.0     0.197499      0.896960      0.659319     Biso  1.000000 H
   H129       1.0     0.491683      0.000796      0.549149     Biso  1.000000 H
   H130       1.0     0.228688      0.908820      0.531525     Biso  1.000000 H
   H131       1.0     0.219057      0.867675      0.577314     Biso  1.000000 H
   H132       1.0     0.225318      0.847059      0.519647     Biso  1.000000 H
   H133       1.0     0.335487      0.812123      0.369251     Biso  1.000000 H
   H134       1.0     0.319101      0.858075      0.411444     Biso  1.000000 H
   H135       1.0     0.298115      0.793481      0.410804     Biso  1.000000 H
   H136       1.0     0.297177      0.677088      0.430586     Biso  1.000000 H
   H137       1.0     0.453189      0.053498      0.549813     Biso  1.000000 H
   H138       1.0     0.206436      0.885132      0.714873     Biso  1.000000 H
   H139       1.0     0.156848      0.903195      0.697361     Biso  1.000000 H
   H140       1.0     0.108574      0.181813      0.685688     Biso  1.000000 H
   H141       1.0     0.419157      0.753571      0.358425     Biso  1.000000 H
   H142       1.0     0.461449      0.766620      0.316071     Biso  1.000000 H
   H143       1.0     0.403521      0.743801      0.301281     Biso  1.000000 H
   H144       1.0     0.255897      0.997124      0.258595     Biso  1.000000 H
   H145       1.0     0.281947      0.958674      0.220416     Biso  1.000000 H
   H146       1.0     0.296286      0.014646      0.213840     Biso  1.000000 H
   H147       1.0     0.181820      0.936823      0.428483     Biso  1.000000 H
   H148       1.0     0.210308      0.890929      0.446849     Biso  1.000000 H
   H149       1.0     0.203529      0.892935      0.387457     Biso  1.000000 H
   H150       1.0     0.240897      0.180165      0.371881     Biso  1.000000 H
   H151       1.0     0.207320      0.204487      0.419460     Biso  1.000000 H
   H152       1.0     0.183461      0.163595      0.379839     Biso  1.000000 H
   H153       1.0     0.146518      0.203078      0.531089     Biso  1.000000 H
   H154       1.0     0.135763      0.161215      0.484939     Biso  1.000000 H
   H155       1.0     0.181086      0.205447      0.484834     Biso  1.000000 H
   H156       1.0     0.086506      0.193021      0.632576     Biso  1.000000 H
   H157       1.0     0.140040      0.215286      0.645516     Biso  1.000000 H
   H158       1.0     0.350014      0.662789      0.411556     Biso  1.000000 H
   H159       1.0     0.671450      0.465294      0.973387     Biso  1.000000 H
   H160       1.0     0.834369      0.753705      0.467533     Biso  1.000000 H
   H161       1.0     0.614383      0.606886      0.355529     Biso  1.000000 H
   H162       1.0     0.808644      0.781487      0.354012     Biso  1.000000 H
   H163       1.0     0.826085      0.708195      0.253743     Biso  1.000000 H
   H164       1.0     0.850859      0.678805      0.298427     Biso  1.000000 H
   H165       1.0     0.792934      0.707162      0.300638     Biso  1.000000 H
   H166       1.0     0.857719      0.830116      0.293241     Biso  1.000000 H
   H167       1.0     0.810185      0.810127      0.282466     Biso  1.000000 H
   H168       1.0     0.923499      0.804494      0.212414     Biso  1.000000 H
   H169       1.0     0.862315      0.801607      0.363719     Biso  1.000000 H
   H170       1.0     0.894260      0.751495      0.206780     Biso  1.000000 H
   H171       1.0     0.874196      0.879075      0.230266     Biso  1.000000 H
   H172       1.0     0.817772      0.869544      0.239572     Biso  1.000000 H
   H173       1.0     0.899392      0.878623      0.154206     Biso  1.000000 H
   H174       1.0     0.861601      0.847689      0.119978     Biso  1.000000 H
   H175       1.0     0.870129      0.910027      0.110604     Biso  1.000000 H
   H176       1.0     0.845141      0.967937      0.151028     Biso  1.000000 H
   H177       1.0     0.882198      0.952990      0.197062     Biso  1.000000 H
   H178       1.0     0.893500      0.794050      0.163100     Biso  1.000000 H
   H179       1.0     0.750166      0.965793      0.201339     Biso  1.000000 H
   H180       1.0     0.798119      0.676595      0.419855     Biso  1.000000 H
   H181       1.0     0.779492      0.703315      0.370656     Biso  1.000000 H
   H182       1.0     0.708701      0.961869      0.553219     Biso  1.000000 H
   H183       1.0     0.709418      0.927882      0.598583     Biso  1.000000 H
   H184       1.0     0.829361      0.957707      0.517732     Biso  1.000000 H
   H185       1.0     0.773235      0.985735      0.502186     Biso  1.000000 H
   H186       1.0     0.805318      0.004151      0.545458     Biso  1.000000 H
   H187       1.0     0.729657      0.894660      0.515013     Biso  1.000000 H
   H188       1.0     0.751118      0.859340      0.557771     Biso  1.000000 H
   H189       1.0     0.827593      0.665898      0.368921     Biso  1.000000 H
   H190       1.0     0.857123      0.824534      0.499777     Biso  1.000000 H
   H191       1.0     0.834376      0.824269      0.548234     Biso  1.000000 H
   H192       1.0     0.728320      0.824487      0.484163     Biso  1.000000 H
   H193       1.0     0.762891      0.797227      0.518735     Biso  1.000000 H
   H194       1.0     0.712805      0.814775      0.410995     Biso  1.000000 H
   H195       1.0     0.759458      0.834652      0.390026     Biso  1.000000 H
   H196       1.0     0.738443      0.777524      0.369918     Biso  1.000000 H
   H197       1.0     0.842180      0.803987      0.431345     Biso  1.000000 H
   H198       1.0     0.861551      0.878365      0.528242     Biso  1.000000 H
   H199       1.0     0.754866      0.025441      0.210196     Biso  1.000000 H
   H200       1.0     0.776337      0.003771      0.159350     Biso  1.000000 H
   H201       1.0     0.864840      0.038468      0.187944     Biso  1.000000 H
   H202       1.0     0.785126      0.402004      0.247503     Biso  1.000000 H
   H203       1.0     0.772247      0.398215      0.304867     Biso  1.000000 H
   H204       1.0     0.789045      0.451666      0.283555     Biso  1.000000 H
   H205       1.0     0.887357      0.406873      0.358823     Biso  1.000000 H
   H206       1.0     0.833324      0.390538      0.369482     Biso  1.000000 H
   H207       1.0     0.868133      0.511663      0.324588     Biso  1.000000 H
   H208       1.0     0.872796      0.533978      0.376906     Biso  1.000000 H
   H209       1.0     0.843322      0.330545      0.322322     Biso  1.000000 H
   H210       1.0     0.912372      0.486059      0.359871     Biso  1.000000 H
   H211       1.0     0.823680      0.431249      0.436683     Biso  1.000000 H
   H212       1.0     0.824086      0.540397      0.508297     Biso  1.000000 H
   H213       1.0     0.819349      0.548283      0.444032     Biso  1.000000 H
   H214       1.0     0.790633      0.498383      0.474855     Biso  1.000000 H
   H215       1.0     0.878303      0.421254      0.499420     Biso  1.000000 H
   H216       1.0     0.370326      0.549504      0.046288     Biso  1.000000 H
   H217       1.0     0.832838      0.438519      0.522172     Biso  1.000000 H
   H218       1.0     0.880614      0.426790      0.427837     Biso  1.000000 H
   H219       1.0     0.893121      0.345832      0.299070     Biso  1.000000 H
   H220       1.0     0.874598      0.250646      0.281452     Biso  1.000000 H
   H221       1.0     0.918300      0.286223      0.257918     Biso  1.000000 H
   H222       1.0     0.876333      0.024850      0.241188     Biso  1.000000 H
   H223       1.0     0.787819      0.106634      0.300264     Biso  1.000000 H
   H224       1.0     0.767514      0.050697      0.276947     Biso  1.000000 H
   H225       1.0     0.819212      0.055950      0.306439     Biso  1.000000 H
   H226       1.0     0.782564      0.085119      0.181408     Biso  1.000000 H
   H227       1.0     0.824802      0.123921      0.174736     Biso  1.000000 H
   H228       1.0     0.733472      0.133093      0.143233     Biso  1.000000 H
   H229       1.0     0.721041      0.191427      0.153866     Biso  1.000000 H
   H230       1.0     0.770515      0.179868      0.132087     Biso  1.000000 H
   H231       1.0     0.824766      0.200987      0.215150     Biso  1.000000 H
   H232       1.0     0.796086      0.198154      0.263817     Biso  1.000000 H
   H233       1.0     0.716700      0.261683      0.256989     Biso  1.000000 H
   H234       1.0     0.717571      0.302376      0.209144     Biso  1.000000 H
   H235       1.0     0.705459      0.242861      0.201843     Biso  1.000000 H
   H236       1.0     0.791792      0.288186      0.282194     Biso  1.000000 H
   H237       1.0     0.779472      0.326825      0.239960     Biso  1.000000 H
   H238       1.0     0.882325      0.250410      0.220154     Biso  1.000000 H
   H239       1.0     0.717219      0.059761      0.564130     Biso  1.000000 H
   H240       1.0     0.574760      0.582249      0.314615     Biso  1.000000 H
   H241       1.0     0.766841      0.049140      0.582173     Biso  1.000000 H
   H242       1.0     0.658176      0.963304      0.638234     Biso  1.000000 H
   H243       1.0     0.540326      0.315779      0.130600     Biso  1.000000 H
   H244       1.0     0.558618      0.283039      0.208746     Biso  1.000000 H
   H245       1.0     0.501695      0.272682      0.218712     Biso  1.000000 H
   H246       1.0     0.468135      0.322532      0.298729     Biso  1.000000 H
   H247       1.0     0.512578      0.331802      0.338439     Biso  1.000000 H
   H248       1.0     0.510273      0.365568      0.287478     Biso  1.000000 H
   H249       1.0     0.490149      0.240231      0.291738     Biso  1.000000 H
   H250       1.0     0.493200      0.358884      0.123336     Biso  1.000000 H
   H251       1.0     0.523501      0.254710      0.333097     Biso  1.000000 H
   H252       1.0     0.531507      0.191898      0.215602     Biso  1.000000 H
   H253       1.0     0.587331      0.217173      0.225316     Biso  1.000000 H
   H254       1.0     0.616161      0.228356      0.307862     Biso  1.000000 H
   H255       1.0     0.622000      0.169409      0.301043     Biso  1.000000 H
   H256       1.0     0.636708      0.257568      0.383544     Biso  1.000000 H
   H257       1.0     0.663331      0.216658      0.415153     Biso  1.000000 H
   H258       1.0     0.671752      0.215948      0.355441     Biso  1.000000 H
   H259       1.0     0.576864      0.157730      0.228973     Biso  1.000000 H
   H260       1.0     0.534937      0.199024      0.380173     Biso  1.000000 H
   H261       1.0     0.487084      0.299347      0.144199     Biso  1.000000 H
   H262       1.0     0.544788      0.394715      0.235016     Biso  1.000000 H
   H263       1.0     0.579473      0.644713      0.330930     Biso  1.000000 H
   H264       1.0     0.612902      0.659486      0.226939     Biso  1.000000 H
   H265       1.0     0.579704      0.612943      0.239150     Biso  1.000000 H
   H266       1.0     0.700290      0.579833      0.213448     Biso  1.000000 H
   H267       1.0     0.691347      0.581782      0.152372     Biso  1.000000 H
   H268       1.0     0.697889      0.634584      0.187563     Biso  1.000000 H
   H269       1.0     0.578076      0.542256      0.182299     Biso  1.000000 H
   H270       1.0     0.581098      0.366601      0.207191     Biso  1.000000 H
   H271       1.0     0.607593      0.535072      0.234342     Biso  1.000000 H
   H272       1.0     0.654310      0.524309      0.108961     Biso  1.000000 H
   H273       1.0     0.636283      0.469058      0.101261     Biso  1.000000 H
   H274       1.0     0.594510      0.454535      0.230168     Biso  1.000000 H
   H275       1.0     0.628016      0.418816      0.196821     Biso  1.000000 H
   H276       1.0     0.531580      0.493369      0.144373     Biso  1.000000 H
   H277       1.0     0.494148      0.448898      0.157414     Biso  1.000000 H
   H278       1.0     0.518801      0.482465      0.196817     Biso  1.000000 H
   H279       1.0     0.598804      0.513597      0.109008     Biso  1.000000 H
   H280       1.0     0.558196      0.251863      0.390145     Biso  1.000000 H
   H281       1.0     0.584498      0.198263      0.514669     Biso  1.000000 H
   H282       1.0     0.618694      0.174597      0.472153     Biso  1.000000 H
   H283       1.0     0.566356      0.201581      0.684174     Biso  1.000000 H
   H284       1.0     0.533958      0.165591      0.653423     Biso  1.000000 H
   H285       1.0     0.531959      0.187663      0.789243     Biso  1.000000 H
   H286       1.0     0.572543      0.149572      0.795864     Biso  1.000000 H
   H287       1.0     0.581617      0.201136      0.768774     Biso  1.000000 H
   H288       1.0     0.617558      0.152532      0.694609     Biso  1.000000 H
   H289       1.0     0.585730      0.103779      0.673854     Biso  1.000000 H
   H290       1.0     0.447702      0.165464      0.720110     Biso  1.000000 H
   H291       1.0     0.585241      0.066169      0.786507     Biso  1.000000 H
   H292       1.0     0.621300      0.018446      0.765770     Biso  1.000000 H
   H293       1.0     0.667481      0.018391      0.708246     Biso  1.000000 H
   H294       1.0     0.685803      0.072205      0.680795     Biso  1.000000 H
   H295       1.0     0.573926      0.984735      0.625241     Biso  1.000000 H
   H296       1.0     0.590818      0.984492      0.679073     Biso  1.000000 H
   H297       1.0     0.561204      0.031824      0.660363     Biso  1.000000 H
   H298       1.0     0.659981      0.994244      0.583708     Biso  1.000000 H
   H299       1.0     0.569555      0.036540      0.738139     Biso  1.000000 H
   H300       1.0     0.442109      0.167261      0.660105     Biso  1.000000 H
   H301       1.0     0.421401      0.209566      0.693241     Biso  1.000000 H
   H302       1.0     0.481574      0.210928      0.612835     Biso  1.000000 H
   H303       1.0     0.613441      0.234829      0.475576     Biso  1.000000 H
   H304       1.0     0.543672      0.277942      0.474144     Biso  1.000000 H
   H305       1.0     0.519719      0.234108      0.506582     Biso  1.000000 H
   H306       1.0     0.473471      0.243795      0.384392     Biso  1.000000 H
   H307       1.0     0.444075      0.298424      0.395249     Biso  1.000000 H
   H308       1.0     0.501162      0.296344      0.403370     Biso  1.000000 H
   H309       1.0     0.436803      0.331045      0.463838     Biso  1.000000 H
   H310       1.0     0.492808      0.333813      0.474620     Biso  1.000000 H
   H311       1.0     0.448098      0.388568      0.574276     Biso  1.000000 H
   H312       1.0     0.502643      0.379964      0.551691     Biso  1.000000 H
   H313       1.0     0.455798      0.399439      0.516816     Biso  1.000000 H
   H314       1.0     0.511801      0.287016      0.557859     Biso  1.000000 H
   H315       1.0     0.464759      0.248747      0.556529     Biso  1.000000 H
   H316       1.0     0.426024      0.289719      0.678862     Biso  1.000000 H
   H317       1.0     0.404841      0.317790      0.631814     Biso  1.000000 H
   H318       1.0     0.406546      0.255992      0.629585     Biso  1.000000 H
   H319       1.0     0.529453      0.242944      0.622747     Biso  1.000000 H
   H320       1.0     0.730112      0.076190      0.623032     Biso  1.000000 H
   H321       1.0     0.341255      0.593573      0.018198     Biso  1.000000 H
   H322       1.0     0.547310      0.711118      0.211842     Biso  1.000000 H
   H323       1.0     0.274715      0.625433      0.991475     Biso  1.000000 H
   H324       1.0     0.834838      0.524240      0.730181     Biso  1.000000 H
   H325       1.0     0.889554      0.545896      0.732607     Biso  1.000000 H
   H326       1.0     0.852902      0.433296      0.822154     Biso  1.000000 H
   H327       1.0     0.910593      0.428188      0.804003     Biso  1.000000 H
   H328       1.0     0.885631      0.381156      0.833185     Biso  1.000000 H
   H329       1.0     0.798652      0.142863      0.629323     Biso  1.000000 H
   H330       1.0     0.754749      0.185570      0.632369     Biso  1.000000 H
   H331       1.0     0.877927      0.500281      0.769747     Biso  1.000000 H
   H332       1.0     0.765668      0.139878      0.677294     Biso  1.000000 H
   H333       1.0     0.923325      0.130938      0.853783     Biso  1.000000 H
   H334       1.0     0.884292      0.081779      0.844038     Biso  1.000000 H
   H335       1.0     0.665243      0.237615      0.798671     Biso  1.000000 H
   H336       1.0     0.648150      0.272569      0.844998     Biso  1.000000 H
   H337       1.0     0.651701      0.210352      0.852092     Biso  1.000000 H
   H338       1.0     0.893282      0.377794      0.985310     Biso  1.000000 H
   H339       1.0     0.872725      0.419621      0.940541     Biso  1.000000 H
   H340       1.0     0.879535      0.111973      0.894663     Biso  1.000000 H
   H341       1.0     0.891577      0.357787      0.929867     Biso  1.000000 H
   H342       1.0     0.007043      0.450387      0.480220     Biso  1.000000 H
   H343       1.0     0.011492      0.393886      0.503350     Biso  1.000000 H
   H344       1.0     0.643002      0.120606      0.238946     Biso  1.000000 H
   H345       1.0     0.786851      0.327549      0.087685     Biso  1.000000 H
   H346       1.0     0.737213      0.303962      0.070871     Biso  1.000000 H
   H347       1.0     0.783465      0.266382      0.069830     Biso  1.000000 H
   H348       1.0     0.955816      0.367687      0.144386     Biso  1.000000 H
   H349       1.0     0.902108      0.403652      0.148085     Biso  1.000000 H
   H350       1.0     0.901090      0.345090      0.125605     Biso  1.000000 H
   H351       1.0     0.025530      0.438244      0.536394     Biso  1.000000 H
   H352       1.0     0.857615      0.530747      0.206351     Biso  1.000000 H
   H353       1.0     0.903773      0.527725      0.245404     Biso  1.000000 H
   H354       1.0     0.736121      0.561850      0.351266     Biso  1.000000 H
   H355       1.0     0.723898      0.507903      0.323577     Biso  1.000000 H
   H356       1.0     0.750957      0.550638      0.292408     Biso  1.000000 H
   H357       1.0     0.943084      0.626502      0.479876     Biso  1.000000 H
   H358       1.0     0.958747      0.598728      0.432532     Biso  1.000000 H
   H359       1.0     0.972423      0.567907      0.483323     Biso  1.000000 H
   H360       1.0     0.900038      0.486011      0.198529     Biso  1.000000 H
   H361       1.0     0.652136      0.063905      0.217800     Biso  1.000000 H
   H362       1.0     0.829894      0.474071      0.080636     Biso  1.000000 H
   H363       1.0     0.837524      0.410981      0.088618     Biso  1.000000 H
   H364       1.0     0.914237      0.698233      0.815363     Biso  1.000000 H
   H365       1.0     0.868374      0.740932      0.804921     Biso  1.000000 H
   H366       1.0     0.920404      0.754111      0.786688     Biso  1.000000 H
   H367       1.0     0.811180      0.628973      0.542304     Biso  1.000000 H
   H368       1.0     0.861364      0.623571      0.505969     Biso  1.000000 H
   H369       1.0     0.830041      0.679109      0.510661     Biso  1.000000 H
   H370       1.0     0.978550      0.576681      0.715857     Biso  1.000000 H
   H371       1.0     0.783461      0.538430      0.629000     Biso  1.000000 H
   H372       1.0     0.028638      0.554326      0.694214     Biso  1.000000 H
   H373       1.0     0.052019      0.542277      0.571428     Biso  1.000000 H
   H374       1.0     0.109203      0.540462      0.552440     Biso  1.000000 H
   H375       1.0     0.065233      0.550251      0.516235     Biso  1.000000 H
   H376       1.0     0.194217      0.813076      0.659707     Biso  1.000000 H
   H377       1.0     0.239467      0.785957      0.633226     Biso  1.000000 H
   H378       1.0     0.212717      0.757715      0.676443     Biso  1.000000 H
   H379       1.0     0.095822      0.865813      0.466978     Biso  1.000000 H
   H380       1.0     0.979709      0.529200      0.677178     Biso  1.000000 H
   H381       1.0     0.849168      0.440077      0.037493     Biso  1.000000 H
   H382       1.0     0.722452      0.540049      0.630337     Biso  1.000000 H
   H383       1.0     0.603775      0.579724      0.581227     Biso  1.000000 H
   H384       1.0     0.507717      0.758320      0.222951     Biso  1.000000 H
   H385       1.0     0.495394      0.697617      0.236755     Biso  1.000000 H
   H386       1.0     0.715669      0.846418      0.267128     Biso  1.000000 H
   H387       1.0     0.741333      0.808240      0.307521     Biso  1.000000 H
   H388       1.0     0.751332      0.867646      0.311264     Biso  1.000000 H
   H389       1.0     0.580367      0.037218      0.435734     Biso  1.000000 H
   H390       1.0     0.586661      0.029487      0.497627     Biso  1.000000 H
   H391       1.0     0.748408      0.556612      0.581795     Biso  1.000000 H
   H392       1.0     0.535322      0.025336      0.474419     Biso  1.000000 H
   H393       1.0     0.583446      0.702917      0.480622     Biso  1.000000 H
   H394       1.0     0.533165      0.733875      0.483190     Biso  1.000000 H
   H395       1.0     0.522091      0.866701      0.657859     Biso  1.000000 H
   H396       1.0     0.551447      0.908864      0.691679     Biso  1.000000 H
   H397       1.0     0.545374      0.847410      0.707065     Biso  1.000000 H
   H398       1.0     0.618858      0.558586      0.637057     Biso  1.000000 H
   H399       1.0     0.661227      0.567175      0.590900     Biso  1.000000 H
   H400       1.0     0.552767      0.708655      0.533866     Biso  1.000000 H
   H401       1.0     0.667742      0.074472      0.273167     Biso  1.000000 H
   H402       1.0     0.959323      0.135871      0.202932     Biso  1.000000 H
   H403       1.0     0.930754      0.178448      0.234751     Biso  1.000000 H
   H404       1.0     0.549092      0.036714      0.304326     Biso  1.000000 H
   H405       1.0     0.501152      0.055965      0.275637     Biso  1.000000 H
   H406       1.0     0.656682      0.045677      0.398501     Biso  1.000000 H
   H407       1.0     0.662929      0.077700      0.451327     Biso  1.000000 H
   H408       1.0     0.706789      0.074585      0.410069     Biso  1.000000 H
   H409       1.0     0.446349      0.100095      0.394871     Biso  1.000000 H
   H410       1.0     0.455460      0.092908      0.453440     Biso  1.000000 H
   H411       1.0     0.506709      0.069596      0.335642     Biso  1.000000 H
   H412       1.0     0.498737      0.071705      0.412121     Biso  1.000000 H
   H413       1.0     0.381551      0.186399      0.532001     Biso  1.000000 H
   H414       1.0     0.419331      0.143758      0.549690     Biso  1.000000 H
   H415       1.0     0.314867      0.279485      0.526319     Biso  1.000000 H
   H416       1.0     0.315935      0.301532      0.582700     Biso  1.000000 H
   H417       1.0     0.321291      0.240147      0.577542     Biso  1.000000 H
   H418       1.0     0.493602      0.436114      0.663177     Biso  1.000000 H
   H419       1.0     0.513315      0.406094      0.712352     Biso  1.000000 H
   H420       1.0     0.392397      0.139824      0.494098     Biso  1.000000 H
   H421       1.0     0.455788      0.426645      0.704237     Biso  1.000000 H
   H422       1.0     0.632203      0.369691      0.368101     Biso  1.000000 H
   H423       1.0     0.641595      0.375334      0.309008     Biso  1.000000 H
   H424       1.0     0.880091      0.543770      0.557808     Biso  1.000000 H
   H425       1.0     0.730243      0.718722      0.281779     Biso  1.000000 H
   H426       1.0     0.684574      0.744442      0.313186     Biso  1.000000 H
   H427       1.0     0.693377      0.756314      0.253563     Biso  1.000000 H
   H428       1.0     0.602927      0.683195      0.082031     Biso  1.000000 H
   H429       1.0     0.610048      0.733930      0.116432     Biso  1.000000 H
   H430       1.0     0.563422      0.688901      0.125258     Biso  1.000000 H
   H431       1.0     0.661291      0.323485      0.335771     Biso  1.000000 H
   H432       1.0     0.763863      0.416161      0.138368     Biso  1.000000 H
   H433       1.0     0.770405      0.455535      0.181677     Biso  1.000000 H
   H434       1.0     0.568784      0.367126      0.044894     Biso  1.000000 H
   H435       1.0     0.582407      0.429862      0.034353     Biso  1.000000 H
   H436       1.0     0.530857      0.411444      0.017933     Biso  1.000000 H
   H437       1.0     0.362763      0.347444      0.198182     Biso  1.000000 H
   H438       1.0     0.384204      0.357363      0.252174     Biso  1.000000 H
   H439       1.0     0.371512      0.301619      0.235356     Biso  1.000000 H
   H440       1.0     0.740650      0.400091      0.190336     Biso  1.000000 H
   H441       1.0     0.576133      0.325412      0.766059     Biso  1.000000 H
   H442       1.0     0.535037      0.289672      0.797324     Biso  1.000000 H
   H443       1.0     0.524389      0.341456      0.765086     Biso  1.000000 H
   H444       1.0     0.957293      0.743645      0.476876     Biso  1.000000 H
   H445       1.0     0.977100      0.786200      0.443032     Biso  1.000000 H
   H446       1.0     0.981950      0.724924      0.422311     Biso  1.000000 H
   H447       1.0     0.993215      0.769148      0.293949     Biso  1.000000 H
   H448       1.0     0.980617      0.732582      0.341208     Biso  1.000000 H
   H449       1.0     0.988699      0.792912      0.353729     Biso  1.000000 H
   H450       1.0     0.796183      0.746355      0.092000     Biso  1.000000 H
   H451       1.0     0.702719      0.645651      0.438561     Biso  1.000000 H
   H452       1.0     0.754909      0.770452      0.126211     Biso  1.000000 H
   H453       1.0     0.686363      0.877778      0.191190     Biso  1.000000 H
   H454       1.0     0.707097      0.842984      0.149402     Biso  1.000000 H
   H455       1.0     0.701597      0.907027      0.135748     Biso  1.000000 H
   H456       1.0     0.838536      0.904720      0.338326     Biso  1.000000 H
   H457       1.0     0.853375      0.962699      0.354291     Biso  1.000000 H
   H458       1.0     0.894729      0.924336      0.335550     Biso  1.000000 H
   H459       1.0     0.957873      0.124290      0.260782     Biso  1.000000 H
   H460       1.0     0.778842      0.713991      0.138177     Biso  1.000000 H
   H461       1.0     0.661301      0.680178      0.470472     Biso  1.000000 H
   H462       1.0     0.657700      0.668386      0.414945     Biso  1.000000 H
   H463       1.0     0.756591      0.925173      0.368441     Biso  1.000000 H
   H464       1.0     0.475963      0.026165      0.698535     Biso  1.000000 H
   H465       1.0     0.477675      0.039721      0.640453     Biso  1.000000 H
   H466       1.0     0.435627      0.072607      0.670510     Biso  1.000000 H
   H467       1.0     0.724069      0.057472      0.834866     Biso  1.000000 H
   H468       1.0     0.708470      0.121519      0.838486     Biso  1.000000 H
   H469       1.0     0.751114      0.097983      0.798440     Biso  1.000000 H
   H470       1.0     0.640098      0.146529      0.546376     Biso  1.000000 H
   H471       1.0     0.672830      0.180694      0.583826     Biso  1.000000 H
   H472       1.0     0.609392      0.174756      0.588171     Biso  1.000000 H
   H473       1.0     0.831997      0.040822      0.707031     Biso  1.000000 H
   H474       1.0     0.826347      0.976628      0.701322     Biso  1.000000 H
   H475       1.0     0.792857      0.007889      0.742109     Biso  1.000000 H
   H476       1.0     0.807890      0.888668      0.698674     Biso  1.000000 H
   H477       1.0     0.854815      0.875145      0.663521     Biso  1.000000 H
   H478       1.0     0.810955      0.834369      0.677165     Biso  1.000000 H
   H479       1.0     0.771899      0.971592      0.407242     Biso  1.000000 H
   H480       1.0     0.715883      0.959497      0.396698     Biso  1.000000 H
   H481       1.0     0.140790      0.901253      0.482660     Biso  1.000000 H
   H482       1.0     0.121242      0.867802      0.528385     Biso  1.000000 H
   H483       1.0     0.136687      0.855663      0.353127     Biso  1.000000 H
   H484       1.0     0.093219      0.833909      0.392663     Biso  1.000000 H
   H485       1.0     0.854232      0.096722      0.517323     Biso  1.000000 H
   H486       1.0     0.824856      0.057435      0.478546     Biso  1.000000 H
   H487       1.0     0.118897      0.063634      0.536377     Biso  1.000000 H
   H488       1.0     0.082711      0.103475      0.569751     Biso  1.000000 H
   H489       1.0     0.080614      0.103076      0.510876     Biso  1.000000 H
   H490       1.0     0.091377      0.836264      0.602581     Biso  1.000000 H
   H491       1.0     0.095925      0.836999      0.667580     Biso  1.000000 H
   H492       1.0     0.864556      0.101490      0.458516     Biso  1.000000 H
   H493       1.0     0.126065      0.877177      0.634396     Biso  1.000000 H
   H494       1.0     0.971043      0.781059      0.701733     Biso  1.000000 H
   H495       1.0     0.985614      0.805657      0.757267     Biso  1.000000 H
   H496       1.0     0.055496      0.107039      0.753793     Biso  1.000000 H
   H497       1.0     0.996758      0.127387      0.751708     Biso  1.000000 H
   H498       1.0     0.021778      0.100834      0.704414     Biso  1.000000 H
   H499       1.0     0.202159      0.959308      0.881135     Biso  1.000000 H
   H500       1.0     0.180152      0.910733      0.851310     Biso  1.000000 H
   H501       1.0     0.027469      0.790551      0.720885     Biso  1.000000 H
   H502       1.0     0.166331      0.920427      0.908626     Biso  1.000000 H
   H503       1.0     0.897894      0.034577      0.315857     Biso  1.000000 H
   H504       1.0     0.933199      0.992393      0.289924     Biso  1.000000 H
   H505       1.0     0.156811      0.307719      0.036946     Biso  1.000000 H
   H506       1.0     0.428533      0.177600      0.223223     Biso  1.000000 H
   H507       1.0     0.435604      0.230537      0.194065     Biso  1.000000 H
   H508       1.0     0.427652      0.178824      0.165325     Biso  1.000000 H
   H509       1.0     0.368005      0.209011      0.303605     Biso  1.000000 H
   H510       1.0     0.365677      0.152347      0.326306     Biso  1.000000 H
   H511       1.0     0.342052      0.198252      0.357064     Biso  1.000000 H
   H512       1.0     0.947479      0.052212      0.285542     Biso  1.000000 H
   H513       1.0     0.108316      0.249222      0.275018     Biso  1.000000 H
   H514       1.0     0.134480      0.244752      0.221236     Biso  1.000000 H
   H515       1.0     0.161823      0.909882      0.282874     Biso  1.000000 H
   H516       1.0     0.151573      0.926593      0.224176     Biso  1.000000 H
   H517       1.0     0.107904      0.909240      0.261266     Biso  1.000000 H
   H518       1.0     0.995844      0.909469      0.340092     Biso  1.000000 H
   H519       1.0     0.046689      0.896043      0.309059     Biso  1.000000 H
   H520       1.0     0.998175      0.923854      0.279901     Biso  1.000000 H
   H521       1.0     0.078886      0.226823      0.224023     Biso  1.000000 H
   H522       1.0     0.850507      0.003475      0.852837     Biso  1.000000 H
   H523       1.0     0.858945      0.955617      0.888341     Biso  1.000000 H
   H524       1.0     0.884282      0.955602      0.832920     Biso  1.000000 H
   H525       1.0     0.973814      0.653527      0.920630     Biso  1.000000 H
   H526       1.0     0.007683      0.705210      0.930977     Biso  1.000000 H
   H527       1.0     0.014131      0.647835      0.960319     Biso  1.000000 H
   H528       1.0     0.042040      0.813507      0.874279     Biso  1.000000 H
   H529       1.0     0.092901      0.801353      0.898348     Biso  1.000000 H
   H530       1.0     0.048438      0.765747      0.913958     Biso  1.000000 H
   H531       1.0     0.100890      0.854945      0.799171     Biso  1.000000 H
   H532       1.0     0.987359      0.410680      0.775957     Biso  1.000000 H
   H533       1.0     0.124009      0.842647      0.747472     Biso  1.000000 H
   H534       1.0     0.354188      0.743044      0.898576     Biso  1.000000 H
   H535       1.0     0.321931      0.707496      0.939159     Biso  1.000000 H
   H536       1.0     0.294772      0.756288      0.916721     Biso  1.000000 H
   H537       1.0     0.393529      0.502889      0.744379     Biso  1.000000 H
   H538       1.0     0.424634      0.557068      0.741293     Biso  1.000000 H
   H539       1.0     0.378265      0.555858      0.708167     Biso  1.000000 H
   H540       1.0     0.245962      0.657881      0.956593     Biso  1.000000 H
   H541       1.0     0.154641      0.878843      0.783275     Biso  1.000000 H
   H542       1.0     0.976108      0.465710      0.743845     Biso  1.000000 H
   H543       1.0     0.031258      0.440240      0.751510     Biso  1.000000 H
   H544       1.0     0.942816      0.529218      0.006847     Biso  1.000000 H
   H545       1.0     0.947151      0.926314      0.105119     Biso  1.000000 H
   H546       1.0     0.967292      0.973907      0.142301     Biso  1.000000 H
   H547       1.0     0.006675      0.937797      0.115905     Biso  1.000000 H
   H548       1.0     0.124977      0.105065      0.018399     Biso  1.000000 H
   H549       1.0     0.110245      0.090238      0.959880     Biso  1.000000 H
   H550       1.0     0.116680      0.043347      0.994071     Biso  1.000000 H
   H551       1.0     0.901964      0.205016      0.136210     Biso  1.000000 H
   H552       1.0     0.924675      0.263165      0.130426     Biso  1.000000 H
   H553       1.0     0.950450      0.223983      0.167033     Biso  1.000000 H
   H554       1.0     0.877639      0.254029      0.064437     Biso  1.000000 H
   H555       1.0     0.838640      0.254217      0.013173     Biso  1.000000 H
   H556       1.0     0.865122      0.311787      0.037623     Biso  1.000000 H
   H557       1.0     0.168512      0.347379      0.917792     Biso  1.000000 H
   H558       1.0     0.168609      0.321376      0.865671     Biso  1.000000 H
   H559       1.0     0.168535      0.284614      0.914587     Biso  1.000000 H
   H560       1.0     0.968515      0.507461      0.058619     Biso  1.000000 H
   H561       1.0     0.927793      0.472738      0.028188     Biso  1.000000 H
   H562       1.0     0.195342      0.330117      0.071732     Biso  1.000000 H
   H563       1.0     0.221787      0.610744      0.992727     Biso  1.000000 H
   H564       1.0     0.209511      0.317783      0.010043     Biso  1.000000 H
   H565       1.0     0.792810      0.554909      0.082218     Biso  1.000000 H
   H566       1.0     0.720489      0.326419      0.407855     Biso  1.000000 H
   H567       1.0     0.749161      0.273739      0.386389     Biso  1.000000 H
   H568       1.0     0.671343      0.442349      0.462102     Biso  1.000000 H
   H569       1.0     0.721051      0.409499      0.445751     Biso  1.000000 H
   H570       1.0     0.722863      0.468413      0.474960     Biso  1.000000 H
   H571       1.0     0.608320      0.456444      0.520644     Biso  1.000000 H
   H572       1.0     0.564621      0.458991      0.565433     Biso  1.000000 H
   H573       1.0     0.766198      0.339424      0.376872     Biso  1.000000 H
   H574       1.0     0.567900      0.416654      0.522036     Biso  1.000000 H
   H575       1.0     0.695189      0.289128      0.743089     Biso  1.000000 H
   H576       1.0     0.688607      0.313345      0.794255     Biso  1.000000 H
   H577       1.0     0.585305      0.479045      0.824298     Biso  1.000000 H
   H578       1.0     0.569830      0.525921      0.788933     Biso  1.000000 H
   H579       1.0     0.598643      0.543024      0.840575     Biso  1.000000 H
   H580       1.0     0.894327      0.608223      0.839881     Biso  1.000000 H
   H581       1.0     0.903743      0.553243      0.818439     Biso  1.000000 H
   H582       1.0     0.740881      0.308820      0.772428     Biso  1.000000 H
   H583       1.0     0.879019      0.552692      0.870241     Biso  1.000000 H
   H584       1.0     0.834198      0.207236      0.345335     Biso  1.000000 H
   H585       1.0     0.798253      0.192101      0.386848     Biso  1.000000 H
   H586       1.0     0.087722      0.823628      0.332764     Biso  1.000000 H
   H587       1.0     0.215008      0.528196      0.362609     Biso  1.000000 H
   H588       1.0     0.222608      0.573102      0.316316     Biso  1.000000 H
   H589       1.0     0.188884      0.521937      0.312621     Biso  1.000000 H
   H590       1.0     0.908188      0.615171      0.298682     Biso  1.000000 H
   H591       1.0     0.931454      0.653726      0.338898     Biso  1.000000 H
   H592       1.0     0.899941      0.607089      0.356342     Biso  1.000000 H
   H593       1.0     0.851619      0.161726      0.384255     Biso  1.000000 H
   H594       1.0     0.132470      0.484139      0.432917     Biso  1.000000 H
   H595       1.0     0.098542      0.532978      0.453566     Biso  1.000000 H
   H596       1.0     0.004836      0.283510      0.259537     Biso  1.000000 H
   H597       1.0     0.045185      0.330578      0.248864     Biso  1.000000 H
   H598       1.0     0.986515      0.336091      0.237690     Biso  1.000000 H
   H599       1.0     0.062171      0.181556      0.443192     Biso  1.000000 H
   H600       1.0     0.029821      0.199248      0.489325     Biso  1.000000 H
   H601       1.0     0.075047      0.232630      0.467795     Biso  1.000000 H
   H602       1.0     0.094351      0.476557      0.472871     Biso  1.000000 H
   H603       1.0     0.698291      0.752763      0.859901     Biso  1.000000 H
   H604       1.0     0.710383      0.771217      0.918224     Biso  1.000000 H
   H605       1.0     0.655272      0.746591      0.900301     Biso  1.000000 H
   H606       1.0     0.730588      0.830055      0.760258     Biso  1.000000 H
   H607       1.0     0.769145      0.876656      0.759860     Biso  1.000000 H
   H608       1.0     0.715102      0.891200      0.743185     Biso  1.000000 H
   H609       1.0     0.741250      0.032606      0.028157     Biso  1.000000 H
   H610       1.0     0.802668      0.015153      0.038153     Biso  1.000000 H
   H611       1.0     0.755703      0.004618      0.076587     Biso  1.000000 H
   H612       1.0     0.863805      0.814655      0.835182     Biso  1.000000 H
   H613       1.0     0.666479      0.775463      0.770234     Biso  1.000000 H
   H614       1.0     0.857120      0.879814      0.836951     Biso  1.000000 H
   H615       1.0     0.984475      0.873232      0.976201     Biso  1.000000 H
   H616       1.0     0.021430      0.826642      0.965827     Biso  1.000000 H
   H617       1.0     0.005767      0.845150      0.025013     Biso  1.000000 H
   H618       1.0     0.883622      0.605176      0.953361     Biso  1.000000 H
   H619       1.0     0.827740      0.626433      0.959057     Biso  1.000000 H
   H620       1.0     0.856038      0.575732      0.991049     Biso  1.000000 H
   H621       1.0     0.796481      0.539394      0.140113     Biso  1.000000 H
   H622       1.0     0.809826      0.842752      0.837465     Biso  1.000000 H
   H623       1.0     0.621708      0.742276      0.791631     Biso  1.000000 H
   H624       1.0     0.611308      0.789609      0.751146     Biso  1.000000 H
   H625       1.0     0.447810      0.984402      0.827676     Biso  1.000000 H
   H626       1.0     0.723929      0.673545      0.083997     Biso  1.000000 H
   H627       1.0     0.679355      0.715382      0.075706     Biso  1.000000 H
   H628       1.0     0.726113      0.713998      0.038909     Biso  1.000000 H
   H629       1.0     0.483202      0.494579      0.997776     Biso  1.000000 H
   H630       1.0     0.446510      0.527334      0.030168     Biso  1.000000 H
   H631       1.0     0.498077      0.502389      0.055080     Biso  1.000000 H
   H632       1.0     0.421800      0.743906      0.022291     Biso  1.000000 H
   H633       1.0     0.372272      0.765069      0.998032     Biso  1.000000 H
   H634       1.0     0.420286      0.787863      0.979250     Biso  1.000000 H
   H635       1.0     0.607007      0.630599      0.815244     Biso  1.000000 H
   H636       1.0     0.591418      0.660652      0.766239     Biso  1.000000 H
   H637       1.0     0.569404      0.603510      0.780162     Biso  1.000000 H
   H638       1.0     0.453142      0.736205      0.680407     Biso  1.000000 H
   H639       1.0     0.497277      0.770561      0.655413     Biso  1.000000 H
   H640       1.0     0.441985      0.793706      0.663694     Biso  1.000000 H
   H641       1.0     0.504378      0.994628      0.816938     Biso  1.000000 H
   H642       1.0     0.479775      0.005658      0.871210     Biso  1.000000 H
   H643       1.0     0.757499      0.580206      0.124282     Biso  1.000000 H
   H644       1.0     0.835984      0.510909      0.576049     Biso  1.000000 H
   H645       1.0     0.211457      0.197981      0.124557     Biso  1.000000 H
   H646       1.0     0.893105      0.386441      0.573837     Biso  1.000000 H
   H647       1.0     0.384974      0.964235      0.051208     Biso  1.000000 H
   H648       1.0     0.394169      0.870015      0.083684     Biso  1.000000 H
   H649       1.0     0.373351      0.828982      0.050984     Biso  1.000000 H
   H650       1.0     0.421723      0.850030      0.029681     Biso  1.000000 H
   H651       1.0     0.328878      0.922217      0.085032     Biso  1.000000 H
   H652       1.0     0.303880      0.875058      0.053682     Biso  1.000000 H
   H653       1.0     0.284687      0.951444      0.963606     Biso  1.000000 H
   H654       1.0     0.377772      0.965880      0.990529     Biso  1.000000 H
   H655       1.0     0.255913      0.899206      0.986146     Biso  1.000000 H
   H656       1.0     0.260660      0.949813      0.106055     Biso  1.000000 H
   H657       1.0     0.235745      0.902028      0.072555     Biso  1.000000 H
   H658       1.0     0.161933      0.030154      0.069762     Biso  1.000000 H
   H659       1.0     0.219138      0.034642      0.087835     Biso  1.000000 H
   H660       1.0     0.200554      0.027698      0.029433     Biso  1.000000 H
   H661       1.0     0.176547      0.913758      0.133315     Biso  1.000000 H
   H662       1.0     0.138452      0.961518      0.125445     Biso  1.000000 H
   H663       1.0     0.231119      0.951766      0.982676     Biso  1.000000 H
   H664       1.0     0.469696      0.929067      0.241715     Biso  1.000000 H
   H665       1.0     0.438628      0.939663      0.939207     Biso  1.000000 H
   H666       1.0     0.494858      0.935008      0.956988     Biso  1.000000 H
   H667       1.0     0.556324      0.155959      0.048915     Biso  1.000000 H
   H668       1.0     0.650823      0.155647      0.114388     Biso  1.000000 H
   H669       1.0     0.602529      0.128739      0.134935     Biso  1.000000 H
   H670       1.0     0.649045      0.092190      0.128038     Biso  1.000000 H
   H671       1.0     0.566359      0.073907      0.027187     Biso  1.000000 H
   H672       1.0     0.553725      0.083257      0.085154     Biso  1.000000 H
   H673       1.0     0.660778      0.008784      0.055611     Biso  1.000000 H
   H674       1.0     0.454023      0.891907      0.970475     Biso  1.000000 H
   H675       1.0     0.630146      0.951502      0.043400     Biso  1.000000 H
   H676       1.0     0.536698      0.999068      0.026959     Biso  1.000000 H
   H677       1.0     0.516842      0.017652      0.082068     Biso  1.000000 H
   H678       1.0     0.534072      0.946097      0.141355     Biso  1.000000 H
   H679       1.0     0.518420      0.888034      0.121383     Biso  1.000000 H
   H680       1.0     0.573728      0.904596      0.112424     Biso  1.000000 H
   H681       1.0     0.460900      0.952204      0.086719     Biso  1.000000 H
   H682       1.0     0.466068      0.898094      0.057561     Biso  1.000000 H
   H683       1.0     0.619950      0.001341      0.009145     Biso  1.000000 H
   H684       1.0     0.593287      0.150282      0.001071     Biso  1.000000 H
   H685       1.0     0.175777      0.066314      0.918122     Biso  1.000000 H
   H686       1.0     0.498677      0.861578      0.202339     Biso  1.000000 H
   H687       1.0     0.199435      0.030125      0.444352     Biso  1.000000 H
   H688       1.0     0.307193      0.096063      0.516204     Biso  1.000000 H
   H689       1.0     0.285882      0.046854      0.536496     Biso  1.000000 H
   H690       1.0     0.310646      0.146888      0.583878     Biso  1.000000 H
   H691       1.0     0.273814      0.150311      0.625023     Biso  1.000000 H
   H692       1.0     0.301820      0.095114      0.616799     Biso  1.000000 H
   H693       1.0     0.233210      0.034171      0.591526     Biso  1.000000 H
   H694       1.0     0.187939      0.066691      0.490247     Biso  1.000000 H
   H695       1.0     0.189862      0.064786      0.566433     Biso  1.000000 H
   H696       1.0     0.162703      0.006987      0.642406     Biso  1.000000 H
   H697       1.0     0.130644      0.050245      0.659979     Biso  1.000000 H
   H698       1.0     0.260556      0.075237      0.677457     Biso  1.000000 H
   H699       1.0     0.240431      0.020703      0.659108     Biso  1.000000 H
   H700       1.0     0.149539      0.079167      0.723954     Biso  1.000000 H
   H701       1.0     0.164589      0.070781      0.781945     Biso  1.000000 H
   H702       1.0     0.192009      0.111553      0.745672     Biso  1.000000 H
   H703       1.0     0.133113      0.042181      0.606895     Biso  1.000000 H
   H704       1.0     0.450677      0.826994      0.216483     Biso  1.000000 H
   H705       1.0     0.212264      0.013841      0.507079     Biso  1.000000 H
   H706       1.0     0.322226      0.051056      0.456036     Biso  1.000000 H
   H707       1.0     0.492832      0.843821      0.256302     Biso  1.000000 H
   H708       1.0     0.383705      0.880086      0.267250     Biso  1.000000 H
   H709       1.0     0.395927      0.941673      0.268955     Biso  1.000000 H
   H710       1.0     0.498942      0.915616      0.322420     Biso  1.000000 H
   H711       1.0     0.471810      0.975588      0.324554     Biso  1.000000 H
   H712       1.0     0.477822      0.939228      0.372453     Biso  1.000000 H
   H713       1.0     0.405491      0.930060      0.396736     Biso  1.000000 H
   H714       1.0     0.291299      0.001967      0.475433     Biso  1.000000 H
   H715       1.0     0.365412      0.897065      0.369084     Biso  1.000000 H
   H716       1.0     0.372453      0.052552      0.337874     Biso  1.000000 H
   H717       1.0     0.422178      0.019609      0.354692     Biso  1.000000 H
   H718       1.0     0.364699      0.997117      0.416204     Biso  1.000000 H
   H719       1.0     0.329906      0.951733      0.415602     Biso  1.000000 H
   H720       1.0     0.300209      0.043235      0.333039     Biso  1.000000 H
   H721       1.0     0.257089      0.075617      0.365587     Biso  1.000000 H
   H722       1.0     0.316391      0.081160      0.379009     Biso  1.000000 H
   H723       1.0     0.400888      0.009005      0.301451     Biso  1.000000 H
   H724       1.0     0.668707      0.252250      0.025105     Biso  1.000000 H
   H725       1.0     0.662326      0.198020      0.988239     Biso  1.000000 H
   H726       1.0     0.676073      0.194724      0.042685     Biso  1.000000 H
   H727       1.0     0.101834      0.536952      0.858073     Biso  1.000000 H
   H728       1.0     0.073460      0.567701      0.901267     Biso  1.000000 H
   H729       1.0     0.011512      0.565262      0.786351     Biso  1.000000 H
   H730       1.0     0.042285      0.608686      0.762384     Biso  1.000000 H
   H731       1.0     0.069038      0.556221      0.773415     Biso  1.000000 H
   H732       1.0     0.121419      0.600166      0.806010     Biso  1.000000 H
   H733       1.0     0.118927      0.619195      0.863184     Biso  1.000000 H
   H734       1.0     0.975770      0.546806      0.857975     Biso  1.000000 H
   H735       1.0     0.088483      0.735900      0.770213     Biso  1.000000 H
   H736       1.0     0.051201      0.690082      0.777875     Biso  1.000000 H
   H737       1.0     0.172870      0.657363      0.782479     Biso  1.000000 H
   H738       1.0     0.179977      0.663250      0.840657     Biso  1.000000 H
   H739       1.0     0.217607      0.719294      0.877253     Biso  1.000000 H
   H740       1.0     0.227753      0.779089      0.853695     Biso  1.000000 H
   H741       1.0     0.175697      0.761291      0.868549     Biso  1.000000 H
   H742       1.0     0.250129      0.752897      0.766229     Biso  1.000000 H
   H743       1.0     0.100344      0.678794      0.747652     Biso  1.000000 H
   H744       1.0     0.227130      0.702881      0.744539     Biso  1.000000 H
   H745       1.0     0.989731      0.547621      0.916966     Biso  1.000000 H
   H746       1.0     0.063350      0.510681      0.946549     Biso  1.000000 H
   H747       1.0     0.052829      0.246918      0.990638     Biso  1.000000 H
   H748       1.0     0.042687      0.286618      0.031747     Biso  1.000000 H
   H749       1.0     0.951220      0.259430      0.922716     Biso  1.000000 H
   H750       1.0     0.003811      0.222571      0.928428     Biso  1.000000 H
   H751       1.0     0.953257      0.211040      0.954423     Biso  1.000000 H
   H752       1.0     0.007707      0.345796      0.990389     Biso  1.000000 H
   H753       1.0     0.970340      0.339743      0.946383     Biso  1.000000 H
   H754       1.0     0.965034      0.495836      0.893064     Biso  1.000000 H
   H755       1.0     0.034004      0.273700      0.878450     Biso  1.000000 H
   H756       1.0     0.037347      0.324930      0.849404     Biso  1.000000 H
   H757       1.0     0.005888      0.394161      0.891873     Biso  1.000000 H
   H758       1.0     0.059039      0.392379      0.883717     Biso  1.000000 H
   H759       1.0     0.048612      0.405043      0.008695     Biso  1.000000 H
   H760       1.0     0.101670      0.411658      0.980437     Biso  1.000000 H
   H761       1.0     0.077613      0.462298      0.994861     Biso  1.000000 H
   H762       1.0     0.094897      0.470989      0.913145     Biso  1.000000 H
   H763       1.0     0.984964      0.306828      0.870115     Biso  1.000000 H
   H764       1.0     0.292997      0.662786      0.720838     Biso  1.000000 H
   H765       1.0     0.307909      0.721399      0.722590     Biso  1.000000 H
   H766       1.0     0.345361      0.677841      0.747948     Biso  1.000000 H
   H767       1.0     0.337024      0.330896      0.971901     Biso  1.000000 H
   H768       1.0     0.395368      0.274765      0.919715     Biso  1.000000 H
   H769       1.0     0.424975      0.246632      0.963003     Biso  1.000000 H
   H770       1.0     0.367020      0.259908      0.969168     Biso  1.000000 H
   H771       1.0     0.453491      0.383474      0.960833     Biso  1.000000 H
   H772       1.0     0.436950      0.359960      0.906404     Biso  1.000000 H
   H773       1.0     0.457570      0.254862      0.897783     Biso  1.000000 H
   H774       1.0     0.368859      0.352722      0.924835     Biso  1.000000 H
   H775       1.0     0.461627      0.307531      0.860190     Biso  1.000000 H
   H776       1.0     0.487757      0.270189      0.988484     Biso  1.000000 H
   H777       1.0     0.518771      0.317388      0.995928     Biso  1.000000 H
   H778       1.0     0.589763      0.281803      0.909640     Biso  1.000000 H
   H779       1.0     0.598368      0.310320      0.964762     Biso  1.000000 H
   H780       1.0     0.623132      0.249667      0.950799     Biso  1.000000 H
   H781       1.0     0.538042      0.236344      0.041450     Biso  1.000000 H
   H782       1.0     0.575678      0.285252      0.030290     Biso  1.000000 H
   H783       1.0     0.511302      0.271819      0.875871     Biso  1.000000 H
   H784       1.0     0.407393      0.443305      0.959319     Biso  1.000000 H
   H785       1.0     0.417703      0.423613      0.016324     Biso  1.000000 H
   H786       1.0     0.383839      0.472300      0.005153     Biso  1.000000 H
   H787       1.0     0.247878      0.627379      0.781850     Biso  1.000000 H
   H788       1.0     0.250437      0.646622      0.838880     Biso  1.000000 H
   H789       1.0     0.354298      0.569218      0.865848     Biso  1.000000 H
   H790       1.0     0.360324      0.625198      0.849129     Biso  1.000000 H
   H791       1.0     0.313507      0.616790      0.887280     Biso  1.000000 H
   H792       1.0     0.281484      0.517064      0.814900     Biso  1.000000 H
   H793       1.0     0.236382      0.555272      0.805952     Biso  1.000000 H
   H794       1.0     0.177348      0.520560      0.856008     Biso  1.000000 H
   H795       1.0     0.212921      0.473282      0.844991     Biso  1.000000 H
   H796       1.0     0.198029      0.483602      0.900263     Biso  1.000000 H
   H797       1.0     0.318705      0.498535      0.881169     Biso  1.000000 H
   H798       1.0     0.281591      0.459509      0.877311     Biso  1.000000 H
   H799       1.0     0.226564      0.440693      0.956273     Biso  1.000000 H
   H800       1.0     0.253867      0.457110      0.006671     Biso  1.000000 H
   H801       1.0     0.233612      0.503168      0.968209     Biso  1.000000 H
   H802       1.0     0.343804      0.436839      0.915247     Biso  1.000000 H
   H803       1.0     0.299006      0.406210      0.928513     Biso  1.000000 H
   H804       1.0     0.876011      0.521502      0.613764     Biso  1.000000 H
   H805       1.0     0.267356      0.082710      0.765477     Biso  1.000000 H
   H806       1.0     0.265316      0.941427      0.778849     Biso  1.000000 H
   H807       1.0     0.321006      0.940322      0.797858     Biso  1.000000 H
   H808       1.0     0.166964      0.390723      0.282306     Biso  1.000000 H
   H809       1.0     0.199241      0.438523      0.288750     Biso  1.000000 H
   H810       1.0     0.198521      0.303531      0.305429     Biso  1.000000 H
   H811       1.0     0.255940      0.315895      0.287185     Biso  1.000000 H
   H812       1.0     0.243439      0.301956      0.342845     Biso  1.000000 H
   H813       1.0     0.166921      0.375215      0.360622     Biso  1.000000 H
   H814       1.0     0.197010      0.424942      0.374695     Biso  1.000000 H
   H815       1.0     0.195148      0.340272      0.175304     Biso  1.000000 H
   H816       1.0     0.181394      0.289389      0.396310     Biso  1.000000 H
   H817       1.0     0.146270      0.325100      0.427350     Biso  1.000000 H
   H818       1.0     0.161494      0.412408      0.439459     Biso  1.000000 H
   H819       1.0     0.219660      0.430821      0.444257     Biso  1.000000 H
   H820       1.0     0.271174      0.373041      0.509032     Biso  1.000000 H
   H821       1.0     0.243128      0.370469      0.557077     Biso  1.000000 H
   H822       1.0     0.231970      0.326325      0.517316     Biso  1.000000 H
   H823       1.0     0.143761      0.338641      0.500383     Biso  1.000000 H
   H824       1.0     0.189805      0.295997      0.455876     Biso  1.000000 H
   H825       1.0     0.122086      0.395407      0.505578     Biso  1.000000 H
   H826       1.0     0.164482      0.334015      0.222839     Biso  1.000000 H
   H827       1.0     0.197456      0.466928      0.219141     Biso  1.000000 H
   H828       1.0     0.051077      0.654059      0.140746     Biso  1.000000 H
   H829       1.0     0.089544      0.645115      0.184698     Biso  1.000000 H
   H830       1.0     0.167470      0.613030      0.161415     Biso  1.000000 H
   H831       1.0     0.175934      0.583013      0.109165     Biso  1.000000 H
   H832       1.0     0.174149      0.642644      0.108610     Biso  1.000000 H
   H833       1.0     0.050166      0.567918      0.138449     Biso  1.000000 H
   H834       1.0     0.088493      0.567878      0.176597     Biso  1.000000 H
   H835       1.0     0.222169      0.312081      0.222233     Biso  1.000000 H
   H836       1.0     0.096287      0.520955      0.050569     Biso  1.000000 H
   H837       1.0     0.117564      0.465671      0.067394     Biso  1.000000 H
   H838       1.0     0.124632      0.499064      0.190608     Biso  1.000000 H
   H839       1.0     0.167996      0.516350      0.157026     Biso  1.000000 H
   H840       1.0     0.186007      0.445949      0.089921     Biso  1.000000 H
   H841       1.0     0.225395      0.462769      0.131250     Biso  1.000000 H
   H842       1.0     0.214951      0.402971      0.120968     Biso  1.000000 H
   H843       1.0     0.149282      0.435151      0.227527     Biso  1.000000 H
   H844       1.0     0.149084      0.519238      0.069979     Biso  1.000000 H
   H845       1.0     0.065230      0.378283      0.555852     Biso  1.000000 H
   H846       1.0     0.075489      0.322981      0.536319     Biso  1.000000 H
   H847       1.0     0.077536      0.330762      0.594898     Biso  1.000000 H
   H848       1.0     0.277415      0.290421      0.803761     Biso  1.000000 H
   H849       1.0     0.326610      0.179523      0.722512     Biso  1.000000 H
   H850       1.0     0.290776      0.226342      0.693166     Biso  1.000000 H
   H851       1.0     0.346527      0.236673      0.703860     Biso  1.000000 H
   H852       1.0     0.301147      0.160653      0.793149     Biso  1.000000 H
   H853       1.0     0.258121      0.185352      0.756760     Biso  1.000000 H
   H854       1.0     0.190961      0.218057      0.784235     Biso  1.000000 H
   H855       1.0     0.250497      0.284328      0.752980     Biso  1.000000 H
   H856       1.0     0.181964      0.222853      0.843933     Biso  1.000000 H
   H857       1.0     0.266150      0.123768      0.856382     Biso  1.000000 H
   H858       1.0     0.219543      0.128887      0.816656     Biso  1.000000 H
   H859       1.0     0.207763      0.193257      0.931810     Biso  1.000000 H
   H860       1.0     0.198317      0.134404      0.956284     Biso  1.000000 H
   H861       1.0     0.251653      0.145037      0.935447     Biso  1.000000 H
   H862       1.0     0.228235      0.060960      0.895707     Biso  1.000000 H
   H863       1.0     0.185732      0.062739      0.857005     Biso  1.000000 H
   H864       1.0     0.215524      0.267661      0.813403     Biso  1.000000 H
   H865       1.0     0.322641      0.319453      0.686409     Biso  1.000000 H
   H866       1.0     0.364170      0.298040      0.728582     Biso  1.000000 H
   H867       1.0     0.366826      0.359413      0.710600     Biso  1.000000 H
   H868       1.0     0.136483      0.439403      0.585858     Biso  1.000000 H
   H869       1.0     0.174930      0.408025      0.609144     Biso  1.000000 H
   H870       1.0     0.069926      0.462425      0.624540     Biso  1.000000 H
   H871       1.0     0.047256      0.409379      0.626176     Biso  1.000000 H
   H872       1.0     0.053044      0.444305      0.675467     Biso  1.000000 H
   H873       1.0     0.116248      0.466757      0.704622     Biso  1.000000 H
   H874       1.0     0.146619      0.477473      0.656583     Biso  1.000000 H
   H875       1.0     0.140194      0.432883      0.764126     Biso  1.000000 H
   H876       1.0     0.171121      0.384083      0.752208     Biso  1.000000 H
   H877       1.0     0.193349      0.434114      0.783486     Biso  1.000000 H
   H878       1.0     0.228068      0.445435      0.650252     Biso  1.000000 H
   H879       1.0     0.209702      0.391111      0.668379     Biso  1.000000 H
   H880       1.0     0.271345      0.453300      0.766525     Biso  1.000000 H
   H881       1.0     0.325006      0.458038      0.743355     Biso  1.000000 H
   H882       1.0     0.284680      0.489942      0.722940     Biso  1.000000 H
   H883       1.0     0.251050      0.344622      0.704833     Biso  1.000000 H
   H884       1.0     0.244032      0.373755      0.755780     Biso  1.000000 H
   H885       1.0     0.060755      0.723692      0.207678     Biso  1.000000 H
   H886       1.0     0.093641      0.226650      0.078332     Biso  1.000000 H
   H887       1.0     0.023694      0.720124      0.162994     Biso  1.000000 H
   H888       1.0     0.173194      0.703964      0.147350     Biso  1.000000 H
   H889       1.0     0.462387      0.790804      0.514343     Biso  1.000000 H
   H890       1.0     0.421013      0.745511      0.564681     Biso  1.000000 H
   H891       1.0     0.420279      0.719718      0.514458     Biso  1.000000 H
   H892       1.0     0.295693      0.703743      0.596831     Biso  1.000000 H
   H893       1.0     0.341258      0.747250      0.610375     Biso  1.000000 H
   H894       1.0     0.303722      0.757973      0.565875     Biso  1.000000 H
   H895       1.0     0.354385      0.643173      0.604860     Biso  1.000000 H
   H896       1.0     0.447056      0.840857      0.486157     Biso  1.000000 H
   H897       1.0     0.392481      0.686086      0.625577     Biso  1.000000 H
   H898       1.0     0.403457      0.600257      0.654328     Biso  1.000000 H
   H899       1.0     0.387851      0.567711      0.606885     Biso  1.000000 H
   H900       1.0     0.433912      0.650465      0.519868     Biso  1.000000 H
   H901       1.0     0.395864      0.606194      0.530763     Biso  1.000000 H
   H902       1.0     0.527631      0.606013      0.542804     Biso  1.000000 H
   H903       1.0     0.500181      0.566799      0.583303     Biso  1.000000 H
   H904       1.0     0.530133      0.545226      0.533995     Biso  1.000000 H
   H905       1.0     0.443847      0.566690      0.630351     Biso  1.000000 H
   H906       1.0     0.483577      0.626111      0.466032     Biso  1.000000 H
   H907       1.0     0.444055      0.787808      0.459670     Biso  1.000000 H
   H908       1.0     0.354754      0.814941      0.572167     Biso  1.000000 H
   H909       1.0     0.286113      0.972205      0.830181     Biso  1.000000 H
   H910       1.0     0.319690      0.032436      0.699219     Biso  1.000000 H
   H911       1.0     0.286331      0.981551      0.698603     Biso  1.000000 H
   H912       1.0     0.411764      0.005412      0.740214     Biso  1.000000 H
   H913       1.0     0.390334      0.958837      0.774449     Biso  1.000000 H
   H914       1.0     0.424624      0.946408      0.731521     Biso  1.000000 H
   H915       1.0     0.412391      0.963500      0.656944     Biso  1.000000 H
   H916       1.0     0.409487      0.827671      0.575307     Biso  1.000000 H
   H917       1.0     0.376711      0.011110      0.658877     Biso  1.000000 H
   H918       1.0     0.303126      0.008407      0.626486     Biso  1.000000 H
   H919       1.0     0.292709      0.977037      0.577416     Biso  1.000000 H
   H920       1.0     0.351856      0.884288      0.618572     Biso  1.000000 H
   H921       1.0     0.403367      0.900456      0.602540     Biso  1.000000 H
   H922       1.0     0.388217      0.945481      0.498321     Biso  1.000000 H
   H923       1.0     0.428040      0.907650      0.521583     Biso  1.000000 H
   H924       1.0     0.391563      0.885426      0.480261     Biso  1.000000 H
   H925       1.0     0.292749      0.949734      0.628776     Biso  1.000000 H
   H926       1.0     0.446949      0.587625      0.451524     Biso  1.000000 H
   H927       1.0     0.472751      0.477926      0.443066     Biso  1.000000 H
   H928       1.0     0.528288      0.477991      0.427701     Biso  1.000000 H
   H929       1.0     0.356174      0.717179      0.202544     Biso  1.000000 H
   H930       1.0     0.323435      0.680634      0.168826     Biso  1.000000 H
   H931       1.0     0.381902      0.792677      0.116715     Biso  1.000000 H
   H932       1.0     0.347515      0.833453      0.142797     Biso  1.000000 H
   H933       1.0     0.383112      0.806780      0.177186     Biso  1.000000 H
   H934       1.0     0.285772      0.816035      0.180353     Biso  1.000000 H
   H935       1.0     0.315513      0.785272      0.220872     Biso  1.000000 H
   H936       1.0     0.414829      0.656504      0.074528     Biso  1.000000 H
   H937       1.0     0.242451      0.690647      0.167271     Biso  1.000000 H
   H938       1.0     0.216013      0.680910      0.220372     Biso  1.000000 H
   H939       1.0     0.216294      0.767764      0.148462     Biso  1.000000 H
   H940       1.0     0.216703      0.818644      0.183861     Biso  1.000000 H
   H941       1.0     0.158165      0.741164      0.262460     Biso  1.000000 H
   H942       1.0     0.154855      0.806693      0.259544     Biso  1.000000 H
   H943       1.0     0.110694      0.770710      0.247033     Biso  1.000000 H
   H944       1.0     0.148870      0.690959      0.195786     Biso  1.000000 H
   H945       1.0     0.272079      0.680863      0.217467     Biso  1.000000 H
   H946       1.0     0.360318      0.685152      0.077904     Biso  1.000000 H
   H947       1.0     0.370976      0.623879      0.096583     Biso  1.000000 H
   H948       1.0     0.367164      0.625140      0.189267     Biso  1.000000 H
   H949       1.0     0.513445      0.487044      0.486048     Biso  1.000000 H
   H950       1.0     0.534893      0.552196      0.369244     Biso  1.000000 H
   H951       1.0     0.501209      0.600568      0.380033     Biso  1.000000 H
   H952       1.0     0.387145      0.549772      0.355308     Biso  1.000000 H
   H953       1.0     0.409111      0.540422      0.406106     Biso  1.000000 H
   H954       1.0     0.414233      0.599807      0.379642     Biso  1.000000 H
   H955       1.0     0.498871      0.553185      0.288080     Biso  1.000000 H
   H956       1.0     0.483205      0.609741      0.308862     Biso  1.000000 H
   H957       1.0     0.395257      0.507211      0.288624     Biso  1.000000 H
   H958       1.0     0.390665      0.518028      0.229018     Biso  1.000000 H
   H959       1.0     0.440648      0.496466      0.246084     Biso  1.000000 H
   H960       1.0     0.481195      0.564361      0.215269     Biso  1.000000 H
   H961       1.0     0.474195      0.624267      0.229566     Biso  1.000000 H
   H962       1.0     0.489506      0.639467      0.147809     Biso  1.000000 H
   H963       1.0     0.494966      0.574062      0.140668     Biso  1.000000 H
   H964       1.0     0.464725      0.602727      0.101659     Biso  1.000000 H
   H965       1.0     0.412039      0.659518      0.207433     Biso  1.000000 H
   H966       1.0     0.059076      0.772539      0.175182     Biso  1.000000 H
   H967       1.0     0.091286      0.175227      0.038157     Biso  1.000000 H
   H968       1.0     0.242863      0.035997      0.799460     Biso  1.000000 H
   H969       1.0     0.016573      0.161342      0.991839     Biso  1.000000 H
   H970       1.0     0.124615      0.681290      0.468890     Biso  1.000000 H
   H971       1.0     0.175465      0.672237      0.452504     Biso  1.000000 H
   H972       1.0     0.173878      0.686017      0.339909     Biso  1.000000 H
   H973       1.0     0.203867      0.728449      0.364821     Biso  1.000000 H
   H974       1.0     0.203375      0.667115      0.383943     Biso  1.000000 H
   H975       1.0     0.074186      0.661710      0.402999     Biso  1.000000 H
   H976       1.0     0.115698      0.620456      0.408100     Biso  1.000000 H
   H977       1.0     0.231799      0.790540      0.470265     Biso  1.000000 H
   H978       1.0     0.062560      0.651509      0.275352     Biso  1.000000 H
   H979       1.0     0.097429      0.693603      0.297607     Biso  1.000000 H
   H980       1.0     0.033077      0.599221      0.376178     Biso  1.000000 H
   H981       1.0     0.076223      0.563799      0.378458     Biso  1.000000 H
   H982       1.0     0.076434      0.579296      0.258101     Biso  1.000000 H
   H983       1.0     0.094308      0.523357      0.277560     Biso  1.000000 H
   H984       1.0     0.047597      0.528678      0.243468     Biso  1.000000 H
   H985       1.0     0.987564      0.495340      0.309216     Biso  1.000000 H
   H986       1.0     0.043541      0.684326      0.318137     Biso  1.000000 H
   H987       1.0     0.999642      0.513235      0.364103     Biso  1.000000 H
   H988       1.0     0.206583      0.779759      0.417310     Biso  1.000000 H
   H989       1.0     0.198792      0.763620      0.533389     Biso  1.000000 H
   H990       1.0     0.975341      0.736368      0.642225     Biso  1.000000 H
   H991       1.0     0.969168      0.740860      0.584800     Biso  1.000000 H
   H992       1.0     0.964937      0.667003      0.539626     Biso  1.000000 H
   H993       1.0     0.003041      0.620228      0.550922     Biso  1.000000 H
   H994       1.0     0.952677      0.616902      0.576586     Biso  1.000000 H
   H995       1.0     0.043032      0.733480      0.612049     Biso  1.000000 H
   H996       1.0     0.038074      0.707456      0.562082     Biso  1.000000 H
   H997       1.0     0.234908      0.728746      0.443522     Biso  1.000000 H
   H998       1.0     0.135478      0.668640      0.668359     Biso  1.000000 H
   H999       1.0     0.081271      0.674751      0.682853     Biso  1.000000 H
   H1000      1.0     0.109964      0.739291      0.568965     Biso  1.000000 H
   H1001      1.0     0.099376      0.691803      0.536594     Biso  1.000000 H
   H1002      1.0     0.205964      0.630856      0.531549     Biso  1.000000 H
   H1003      1.0     0.176176      0.612541      0.574807     Biso  1.000000 H
   H1004      1.0     0.154236      0.624119      0.521450     Biso  1.000000 H
   H1005      1.0     0.223164      0.712770      0.515027     Biso  1.000000 H
   H1006      1.0     0.108178      0.725543      0.663946     Biso  1.000000 H
   H1007      1.0     0.904088      0.771514      0.671540     Biso  1.000000 H
   H1008      1.0     0.067283      0.458933      0.267227     Biso  1.000000 H
   H1009      1.0     0.027597      0.419092      0.272572     Biso  1.000000 H
   H1010      1.0     0.790549      0.364286      0.540245     Biso  1.000000 H
   H1011      1.0     0.788509      0.324557      0.585606     Biso  1.000000 H
   H1012      1.0     0.691498      0.266654      0.541786     Biso  1.000000 H
   H1013      1.0     0.709147      0.264788      0.600029     Biso  1.000000 H
   H1014      1.0     0.663602      0.301231      0.581904     Biso  1.000000 H
   H1015      1.0     0.743018      0.402214      0.593098     Biso  1.000000 H
   H1016      1.0     0.737387      0.351223      0.628088     Biso  1.000000 H
   H1017      1.0     0.794606      0.204871      0.528871     Biso  1.000000 H
   H1018      1.0     0.621829      0.336540      0.623022     Biso  1.000000 H
   H1019      1.0     0.621048      0.367984      0.673259     Biso  1.000000 H
   H1020      1.0     0.717246      0.458426      0.656209     Biso  1.000000 H
   H1021      1.0     0.731998      0.407065      0.676028     Biso  1.000000 H
   H1022      1.0     0.616593      0.448876      0.681656     Biso  1.000000 H
   H1023      1.0     0.612554      0.464990      0.736550     Biso  1.000000 H
   H1024      1.0     0.639391      0.502125      0.697337     Biso  1.000000 H
   H1025      1.0     0.711431      0.508928      0.717990     Biso  1.000000 H
   H1026      1.0     0.663003      0.323648      0.664198     Biso  1.000000 H
   H1027      1.0     0.076967      0.405981      0.293296     Biso  1.000000 H
   H1028      1.0     0.760641      0.233909      0.565998     Biso  1.000000 H
   H1029      1.0     0.862596      0.315892      0.539817     Biso  1.000000 H
   H1030      1.0     0.981216      0.414310      0.337187     Biso  1.000000 H
   H1031      1.0     0.990573      0.436447      0.388063     Biso  1.000000 H
   H1032      1.0     0.086443      0.378251      0.396504     Biso  1.000000 H
   H1033      1.0     0.049111      0.380917      0.443719     Biso  1.000000 H
   H1034      1.0     0.066275      0.323593      0.420147     Biso  1.000000 H
   H1035      1.0     0.942578      0.361069      0.381799     Biso  1.000000 H
   H1036      1.0     0.967516      0.375345      0.433903     Biso  1.000000 H
   H1037      1.0     0.819534      0.240158      0.575872     Biso  1.000000 H
   H1038      1.0     0.932945      0.228551      0.389434     Biso  1.000000 H
   H1039      1.0     0.975776      0.260224      0.363865     Biso  1.000000 H
   H1040      1.0     0.884399      0.312791      0.420767     Biso  1.000000 H
   H1041      1.0     0.913149      0.337689      0.469523     Biso  1.000000 H
   H1042      1.0     0.931947      0.279684      0.537210     Biso  1.000000 H
   H1043      1.0     0.893671      0.231192      0.547070     Biso  1.000000 H
   H1044      1.0     0.935645      0.223248      0.510716     Biso  1.000000 H
   H1045      1.0     0.841115      0.337754      0.490706     Biso  1.000000 H
   H1046      1.0     0.920518      0.280977      0.356965     Biso  1.000000 H
   H1047      1.0     0.864385      0.774687      0.636856     Biso  1.000000 H
   H1048      1.0     0.915266      0.797843      0.619759     Biso  1.000000 H
   H1049      1.0     0.918220      0.679957      0.679972     Biso  1.000000 H
   H1050      1.0     0.833099      0.276583      0.877212     Biso  1.000000 H
   H1051      1.0     0.793363      0.166377      0.914683     Biso  1.000000 H
   H1052      1.0     0.832825      0.209594      0.938823     Biso  1.000000 H
   H1053      1.0     0.780768      0.195434      0.965317     Biso  1.000000 H
   H1054      1.0     0.789156      0.278221      0.966045     Biso  1.000000 H
   H1055      1.0     0.734658      0.274370      0.960407     Biso  1.000000 H
   H1056      1.0     0.689304      0.343257      0.903397     Biso  1.000000 H
   H1057      1.0     0.786848      0.287545      0.845478     Biso  1.000000 H
   H1058      1.0     0.721249      0.391328      0.885524     Biso  1.000000 H
   H1059      1.0     0.761002      0.343633      0.009941     Biso  1.000000 H
   H1060      1.0     0.706146      0.338862      0.984850     Biso  1.000000 H
   H1061      1.0     0.656799      0.392650      0.019011     Biso  1.000000 H
   H1062      1.0     0.699450      0.372944      0.056258     Biso  1.000000 H
   H1063      1.0     0.682447      0.437027      0.053311     Biso  1.000000 H
   H1064      1.0     0.678203      0.413719      0.943668     Biso  1.000000 H
   H1065      1.0     0.719072      0.460273      0.935747     Biso  1.000000 H
   H1066      1.0     0.734892      0.332262      0.866699     Biso  1.000000 H
   H1067      1.0     0.616630      0.785935      0.339599     Biso  1.000000 H
   H1068      1.0     0.758065      0.206993      0.793823     Biso  1.000000 H
   H1069      1.0     0.797821      0.171326      0.777971     Biso  1.000000 H
   H1070      1.0     0.070331      0.169569      0.091115     Biso  1.000000 H
   H1071      1.0     0.964753      0.403935      0.631654     Biso  1.000000 H
   H1072      1.0     0.960362      0.461711      0.644814     Biso  1.000000 H
   H1073      1.0     0.952346      0.417835      0.686388     Biso  1.000000 H
   H1074      1.0     0.917738      0.345586      0.651187     Biso  1.000000 H
   H1075      1.0     0.862429      0.350201      0.627238     Biso  1.000000 H
   H1076      1.0     0.799791      0.383130      0.686882     Biso  1.000000 H
   H1077      1.0     0.772743      0.166015      0.830844     Biso  1.000000 H
   H1078      1.0     0.790931      0.324347      0.690890     Biso  1.000000 H
   H1079      1.0     0.909183      0.278836      0.704666     Biso  1.000000 H
   H1080      1.0     0.867004      0.275243      0.666342     Biso  1.000000 H
   H1081      1.0     0.896257      0.192702      0.702179     Biso  1.000000 H
   H1082      1.0     0.908426      0.212786      0.758346     Biso  1.000000 H
   H1083      1.0     0.869359      0.164819      0.744182     Biso  1.000000 H
   H1084      1.0     0.812734      0.285730      0.777161     Biso  1.000000 H
   H1085      1.0     0.868491      0.279691      0.791274     Biso  1.000000 H
   H1086      1.0     0.799208      0.353697      0.740691     Biso  1.000000 H
   H1087      1.0     0.956436      0.577695      0.139279     Biso  1.000000 H
   H1088      1.0     0.513643      0.764258      0.369105     Biso  1.000000 H
   H1089      1.0     0.555815      0.725203      0.368890     Biso  1.000000 H
   H1090      1.0     0.681589      0.751409      0.569781     Biso  1.000000 H
   H1091      1.0     0.626549      0.744866      0.579944     Biso  1.000000 H
   H1092      1.0     0.660058      0.677334      0.690805     Biso  1.000000 H
   H1093      1.0     0.657680      0.740928      0.695037     Biso  1.000000 H
   H1094      1.0     0.615525      0.709238      0.669387     Biso  1.000000 H
   H1095      1.0     0.736178      0.748253      0.638003     Biso  1.000000 H
   H1096      1.0     0.736808      0.696523      0.597181     Biso  1.000000 H
   H1097      1.0     0.674977      0.872015      0.653518     Biso  1.000000 H
   H1098      1.0     0.771942      0.687213      0.741654     Biso  1.000000 H
   H1099      1.0     0.716047      0.690557      0.726023     Biso  1.000000 H
   H1100      1.0     0.808841      0.729876      0.636734     Biso  1.000000 H
   H1101      1.0     0.815728      0.671513      0.620242     Biso  1.000000 H
   H1102      1.0     0.836838      0.600282      0.673388     Biso  1.000000 H
   H1103      1.0     0.870431      0.613244      0.719313     Biso  1.000000 H
   H1104      1.0     0.810413      0.627274      0.719769     Biso  1.000000 H
   H1105      1.0     0.900973      0.641112      0.639160     Biso  1.000000 H
   H1106      1.0     0.751667      0.740505      0.720082     Biso  1.000000 H
   H1107      1.0     0.712650      0.838825      0.626874     Biso  1.000000 H
   H1108      1.0     0.685448      0.813898      0.675542     Biso  1.000000 H
   H1109      1.0     0.674991      0.821335      0.544413     Biso  1.000000 H
   H1110      1.0     0.561265      0.773242      0.401880     Biso  1.000000 H
   H1111      1.0     0.543428      0.849964      0.346628     Biso  1.000000 H
   H1112      1.0     0.567321      0.851084      0.293874     Biso  1.000000 H
   H1113      1.0     0.564135      0.937660      0.364552     Biso  1.000000 H
   H1114      1.0     0.616359      0.956171      0.347833     Biso  1.000000 H
   H1115      1.0     0.574696      0.934530      0.309015     Biso  1.000000 H
   H1116      1.0     0.661318      0.881876      0.402758     Biso  1.000000 H
   H1117      1.0     0.630863      0.831732      0.402822     Biso  1.000000 H
   H1118      1.0     0.525303      0.885708      0.466284     Biso  1.000000 H
   H1119      1.0     0.531704      0.883911      0.407800     Biso  1.000000 H
   H1120      1.0     0.543404      0.830902      0.441099     Biso  1.000000 H
   H1121      1.0     0.658099      0.880655      0.488709     Biso  1.000000 H
   H1122      1.0     0.638524      0.829443      0.470377     Biso  1.000000 H
   H1123      1.0     0.608705      0.931371      0.544553     Biso  1.000000 H
   H1124      1.0     0.559817      0.907737      0.524989     Biso  1.000000 H
   H1125      1.0     0.575722      0.895388      0.581458     Biso  1.000000 H
   H1126      1.0     0.662483      0.876594      0.572527     Biso  1.000000 H
   H1127      1.0     0.747108      0.461679      0.731943     Biso  1.000000 H
   H1128      1.0     0.749925      0.464548      0.850074     Biso  1.000000 H
   H1129      1.0     0.845202      0.413730      0.592870     Biso  1.000000 H
   H1130      1.0     0.786902      0.466178      0.807977     Biso  1.000000 H
   H1131      1.0     0.032212      0.074342      0.236278     Biso  1.000000 H
   H1132      1.0     0.031248      0.055432      0.308103     Biso  1.000000 H
   H1133      1.0     0.060815      0.102899      0.328177     Biso  1.000000 H
   H1134      1.0     0.134506      0.066303      0.381231     Biso  1.000000 H
   H1135      1.0     0.130005      0.011798      0.408484     Biso  1.000000 H
   H1136      1.0     0.145594      0.014841      0.353498     Biso  1.000000 H
   H1137      1.0     0.064791      0.091575      0.408372     Biso  1.000000 H
   H1138      1.0     0.077161      0.094009      0.204255     Biso  1.000000 H
   H1139      1.0     0.064767      0.039189      0.437540     Biso  1.000000 H
   H1140      1.0     0.005482      0.080537      0.479285     Biso  1.000000 H
   H1141      1.0     0.000363      0.126945      0.439323     Biso  1.000000 H
   H1142      1.0     0.019243      0.976845      0.444281     Biso  1.000000 H
   H1143      1.0     0.984636      0.970618      0.409192     Biso  1.000000 H
   H1144      1.0     0.909173      0.925441      0.440943     Biso  1.000000 H
   H1145      1.0     0.963299      0.903361      0.453079     Biso  1.000000 H
   H1146      1.0     0.922534      0.912878      0.495031     Biso  1.000000 H
   H1147      1.0     0.954681      0.095222      0.456801     Biso  1.000000 H
   H1148      1.0     0.943506      0.989520      0.547213     Biso  1.000000 H
   H1149      1.0     0.055097      0.122837      0.255448     Biso  1.000000 H
   H1150      1.0     0.138559      0.109713      0.306014     Biso  1.000000 H
   H1151      1.0     0.223385      0.121848      0.070303     Biso  1.000000 H
   H1152      1.0     0.310981      0.193844      0.097379     Biso  1.000000 H
   H1153      1.0     0.284087      0.138904      0.109774     Biso  1.000000 H
   H1154      1.0     0.310251      0.260879      0.155162     Biso  1.000000 H
   H1155      1.0     0.252172      0.253507      0.174729     Biso  1.000000 H
   H1156      1.0     0.296005      0.242748      0.216265     Biso  1.000000 H
   H1157      1.0     0.259745      0.113067      0.188672     Biso  1.000000 H
   H1158      1.0     0.166073      0.055476      0.292316     Biso  1.000000 H
   H1159      1.0     0.223405      0.157868      0.177727     Biso  1.000000 H
   H1160      1.0     0.251840      0.231319      0.262133     Biso  1.000000 H
   H1161      1.0     0.201157      0.221505      0.238225     Biso  1.000000 H
   H1162      1.0     0.213366      0.116954      0.299437     Biso  1.000000 H
   H1163      1.0     0.232449      0.080352      0.261555     Biso  1.000000 H
   H1164      1.0     0.184101      0.034943      0.212931     Biso  1.000000 H
   H1165      1.0     0.136861      0.064025      0.187372     Biso  1.000000 H
   H1166      1.0     0.190097      0.077965      0.173235     Biso  1.000000 H
   H1167      1.0     0.206520      0.202976      0.290223     Biso  1.000000 H
   H1168      1.0     0.973874      0.027129      0.523019     Biso  1.000000 H
   H1169      1.0     0.028729      0.915613      0.486651     Biso  1.000000 H
   H1170      1.0     0.052257      0.901724      0.536111     Biso  1.000000 H
   H1171      1.0     0.057227      0.016656      0.935315     Biso  1.000000 H
   H1172      1.0     0.041879      0.962503      0.928163     Biso  1.000000 H
   H1173      1.0     0.007224      0.089839      0.926047     Biso  1.000000 H
   H1174      1.0     0.981665      0.069223      0.871928     Biso  1.000000 H
   H1175      1.0     0.949448      0.084279      0.920916     Biso  1.000000 H
   H1176      1.0     0.014496      0.016613      0.996439     Biso  1.000000 H
   H1177      1.0     0.979414      0.970516      0.984513     Biso  1.000000 H
   H1178      1.0     0.094666      0.028429      0.818391     Biso  1.000000 H
   H1179      1.0     0.891433      0.989524      0.987034     Biso  1.000000 H
   H1180      1.0     0.893282      0.045151      0.958420     Biso  1.000000 H
   H1181      1.0     0.930794      0.109709      0.033176     Biso  1.000000 H
   H1182      1.0     0.966458      0.106481      0.986218     Biso  1.000000 H
   H1183      1.0     0.948758      0.126018      0.105640     Biso  1.000000 H
   H1184      1.0     0.989218      0.077367      0.115704     Biso  1.000000 H
   H1185      1.0     0.010812      0.132129      0.121621     Biso  1.000000 H
   H1186      1.0     0.745658      0.423124      0.810801     Biso  1.000000 H
   H1187      1.0     0.876685      0.044093      0.015640     Biso  1.000000 H
   H1188      1.0     0.101553      0.051788      0.874949     Biso  1.000000 H
   H1189      1.0     0.054886      0.069549      0.839925     Biso  1.000000 H
   H1190      1.0     0.991104      0.003941      0.834148     Biso  1.000000 H
   H1191      1.0     0.994913      0.885480      0.525982     Biso  1.000000 H
   H1192      1.0     0.993821      0.002166      0.600927     Biso  1.000000 H
   H1193      1.0     0.041973      0.970995      0.605704     Biso  1.000000 H
   H1194      1.0     0.921215      0.949020      0.607119     Biso  1.000000 H
   H1195      1.0     0.939570      0.905346      0.572599     Biso  1.000000 H
   H1196      1.0     0.924879      0.890950      0.626044     Biso  1.000000 H
   H1197      1.0     0.974149      0.988173      0.671830     Biso  1.000000 H
   H1198      1.0     0.021135      0.963634      0.683149     Biso  1.000000 H
   H1199      1.0     0.898538      0.954736      0.675470     Biso  1.000000 H
   H1200      1.0     0.887149      0.941315      0.730922     Biso  1.000000 H
   H1201      1.0     0.909993      0.996574      0.714149     Biso  1.000000 H
   H1202      1.0     0.967945      0.924361      0.784173     Biso  1.000000 H
   H1203      1.0     0.951870      0.981721      0.769982     Biso  1.000000 H
   H1204      1.0     0.090399      0.937265      0.772908     Biso  1.000000 H
   H1205      1.0     0.042502      0.894507      0.786793     Biso  1.000000 H
   H1206      1.0     0.054913      0.908476      0.732562     Biso  1.000000 H
   H1207      1.0     0.003702      0.944579      0.840854     Biso  1.000000 H
   H1208      1.0     0.217684      0.171833      0.028569     Biso  1.000000 H
   H1209      1.0     0.177204      0.161219      0.068506     Biso  1.000000 H
   H1210      1.0     0.970122      0.181798      0.018603     Biso  1.000000 H
   H1211      1.0     0.513144      0.612534      0.896912     Biso  1.000000 H
   H1212      1.0     0.191976      0.975251      0.144540     Biso  1.000000 H
   H1213      1.0     0.531228      0.668405      0.902437     Biso  1.000000 H
   H1214      1.0     0.400426      0.625651      0.945981     Biso  1.000000 H
   H1215      1.0     0.442497      0.583024      0.942266     Biso  1.000000 H
   H1216      1.0     0.437510      0.626843      0.985704     Biso  1.000000 H
   H1217      1.0     0.414400      0.683286      0.876783     Biso  1.000000 H
   H1218      1.0     0.434984      0.624546      0.862816     Biso  1.000000 H
   H1219      1.0     0.504676      0.656899      0.022026     Biso  1.000000 H
   H1220      1.0     0.399036      0.707912      0.810161     Biso  1.000000 H
   H1221      1.0     0.415918      0.650234      0.792309     Biso  1.000000 H
   H1222      1.0     0.461024      0.753991      0.866222     Biso  1.000000 H
   H1223      1.0     0.420202      0.785149      0.782387     Biso  1.000000 H
   H1224      1.0     0.432763      0.822976      0.832464     Biso  1.000000 H
   H1225      1.0     0.450211      0.840361      0.781737     Biso  1.000000 H
   H1226      1.0     0.547524      0.831196      0.789706     Biso  1.000000 H
   H1227      1.0     0.558702      0.790402      0.830378     Biso  1.000000 H
   H1228      1.0     0.438762      0.709209      0.766331     Biso  1.000000 H
   H1229      1.0     0.504063      0.866549      0.924638     Biso  1.000000 H
   H1230      1.0     0.551038      0.692194      0.994888     Biso  1.000000 H
   H1231      1.0     0.602458      0.649531      0.926513     Biso  1.000000 H
   H1232      1.0     0.706055      0.569979      0.776212     Biso  1.000000 H
   H1233      1.0     0.757787      0.547150      0.761316     Biso  1.000000 H
   H1234      1.0     0.766918      0.653766      0.843351     Biso  1.000000 H
   H1235      1.0     0.780336      0.631704      0.790373     Biso  1.000000 H
   H1236      1.0     0.725503      0.648872      0.807105     Biso  1.000000 H
   H1237      1.0     0.723162      0.539879      0.886626     Biso  1.000000 H
   H1238      1.0     0.682584      0.567048      0.856614     Biso  1.000000 H
   H1239      1.0     0.559663      0.647314      0.032846     Biso  1.000000 H
   H1240      1.0     0.770766      0.639594      0.923451     Biso  1.000000 H
   H1241      1.0     0.760393      0.582180      0.947029     Biso  1.000000 H
   H1242      1.0     0.688403      0.557199      0.968576     Biso  1.000000 H
   H1243      1.0     0.649905      0.560013      0.927581     Biso  1.000000 H
   H1244      1.0     0.654260      0.559213      0.038334     Biso  1.000000 H
   H1245      1.0     0.595930      0.578952      0.037609     Biso  1.000000 H
   H1246      1.0     0.613445      0.533572      0.000416     Biso  1.000000 H
   H1247      1.0     0.592021      0.592743      0.920878     Biso  1.000000 H
   H1248      1.0     0.741085      0.631534      0.977283     Biso  1.000000 H
   H1249      1.0     0.463630      0.841075      0.891635     Biso  1.000000 H
   H1250      1.0     0.514440      0.735618      0.864715     Biso  1.000000 H
   H1251      1.0     0.588226      0.833492      0.892220     Biso  1.000000 H
   H1252      1.0     0.836181      0.814898      0.042699     Biso  1.000000 H
   H1253      1.0     0.920936      0.722356      0.961551     Biso  1.000000 H
   H1254      1.0     0.864894      0.724420      0.948601     Biso  1.000000 H
   H1255      1.0     0.897730      0.768351      0.931786     Biso  1.000000 H
   H1256      1.0     0.847928      0.719443      0.047122     Biso  1.000000 H
   H1257      1.0     0.511727      0.805939      0.911695     Biso  1.000000 H
   H1258      1.0     0.968856      0.747355      0.082521     Biso  1.000000 H
   H1259      1.0     0.816603      0.779484      0.002102     Biso  1.000000 H
   H1260      1.0     0.983062      0.689988      0.068350     Biso  1.000000 H
   H1261      1.0     0.868632      0.691933      0.126146     Biso  1.000000 H
   H1262      1.0     0.918505      0.704815      0.132590     Biso  1.000000 H
   H1263      1.0     0.922585      0.663826      0.194283     Biso  1.000000 H
   H1264      1.0     0.866294      0.648422      0.196460     Biso  1.000000 H
   H1265      1.0     0.905384      0.599307      0.198413     Biso  1.000000 H
   H1266      1.0     0.975756      0.638236      0.141539     Biso  1.000000 H
   H1267      1.0     0.958995      0.607379      0.088873     Biso  1.000000 H
   H1268      1.0     0.964642      0.727159      0.022693     Biso  1.000000 H
   H1269      1.0     0.852460      0.905980      0.011900     Biso  1.000000 H
   H1270      1.0     0.873606      0.757893      0.082500     Biso  1.000000 H
   H1271      1.0     0.890304      0.884045      0.970104     Biso  1.000000 H
   H1272      1.0     0.848511      0.917953      0.955630     Biso  1.000000 H
   H1273      1.0     0.580304      0.948111      0.809463     Biso  1.000000 H
   H1274      1.0     0.593840      0.964333      0.863191     Biso  1.000000 H
   H1275      1.0     0.635958      0.958276      0.819967     Biso  1.000000 H
   H1276      1.0     0.670834      0.848240      0.875273     Biso  1.000000 H
   H1277      1.0     0.648934      0.890001      0.915098     Biso  1.000000 H
   H1278      1.0     0.672083      0.972085      0.931810     Biso  1.000000 H
   H1279      1.0     0.720837      0.991169      0.906765     Biso  1.000000 H
   H1280      1.0     0.566718      0.892483      0.907299     Biso  1.000000 H
   H1281      1.0     0.774150      0.909527      0.898038     Biso  1.000000 H
   H1282      1.0     0.743229      0.857814      0.905095     Biso  1.000000 H
   H1283      1.0     0.699322      0.895087      0.026582     Biso  1.000000 H
   H1284      1.0     0.668385      0.911646      0.979379     Biso  1.000000 H
   H1285      1.0     0.686430      0.853127      0.985463     Biso  1.000000 H
   H1286      1.0     0.755271      0.823813      0.988889     Biso  1.000000 H
   H1287      1.0     0.779422      0.865947      0.026214     Biso  1.000000 H
   H1288      1.0     0.672254      0.993321      0.877123     Biso  1.000000 H
   O1         1.0     0.156949      0.808522      0.805091     Biso  1.000000 O
   O2         1.0     0.302818      0.702692      0.869717     Biso  1.000000 O
   O3         1.0     0.367744      0.568526      0.780016     Biso  1.000000 O
   O4         1.0     0.258265      0.584571      0.939629     Biso  1.000000 O
   O5         1.0     0.311202      0.523643      0.016967     Biso  1.000000 O
   O6         1.0     0.344283      0.404902      0.064964     Biso  1.000000 O
   O7         1.0     0.400801      0.287114      0.043029     Biso  1.000000 O
   O8         1.0     0.651393      0.087141      0.991053     Biso  1.000000 O
   O9         1.0     0.569732      0.187877      0.919674     Biso  1.000000 O
   O10        1.0     0.636205      0.266476      0.096573     Biso  1.000000 O
   O11        1.0     0.635147      0.984413      0.135047     Biso  1.000000 O
   O12        1.0     0.548466      0.860521      0.041233     Biso  1.000000 O
   O13        1.0     0.438277      0.031675      0.048701     Biso  1.000000 O
   O14        1.0     0.357738      0.908737      0.938768     Biso  1.000000 O
   O15        1.0     0.078243      0.751006      0.850439     Biso  1.000000 O
   O16        1.0     0.543652      0.384876      0.936676     Biso  1.000000 O
   O17        1.0     0.039300      0.647404      0.896003     Biso  1.000000 O
   O18        1.0     0.704417      0.453752      0.155158     Biso  1.000000 O
   O19        1.0     0.993690      0.476288      0.001608     Biso  1.000000 O
   O20        1.0     0.288314      0.027712      0.001097     Biso  1.000000 O
   O21        1.0     0.127110      0.184244      0.252627     Biso  1.000000 O
   O22        1.0     0.135719      0.978903      0.272616     Biso  1.000000 O
   O23        1.0     0.032433      0.966934      0.319368     Biso  1.000000 O
   O24        1.0     0.956097      0.020203      0.350041     Biso  1.000000 O
   O25        1.0     0.893721      0.044068      0.494622     Biso  1.000000 O
   O26        1.0     0.052052      0.045307      0.543246     Biso  1.000000 O
   O27        1.0     0.062640      0.892233      0.639347     Biso  1.000000 O
   O28        1.0     0.993529      0.856083      0.712509     Biso  1.000000 O
   O29        1.0     0.008521      0.053900      0.757094     Biso  1.000000 O
   O30        1.0     0.132333      0.967032      0.866226     Biso  1.000000 O
   O31        1.0     0.911156      0.006107      0.885687     Biso  1.000000 O
   O32        1.0     0.977237      0.981913      0.070449     Biso  1.000000 O
   O33        1.0     0.059163      0.086333      0.003041     Biso  1.000000 O
   O34        1.0     0.957424      0.216992      0.093071     Biso  1.000000 O
   O35        1.0     0.908871      0.259843      0.004902     Biso  1.000000 O
   O36        1.0     0.108359      0.315040      0.894411     Biso  1.000000 O
   O37        1.0     0.003818      0.476010      0.809389     Biso  1.000000 O
   O38        1.0     0.124726      0.962496      0.030328     Biso  1.000000 O
   O39        1.0     0.257263      0.268501      0.882006     Biso  1.000000 O
   O40        1.0     0.416139      0.816169      0.317375     Biso  1.000000 O
   O41        1.0     0.234439      0.810312      0.271953     Biso  1.000000 O
   O42        1.0     0.113266      0.841002      0.187073     Biso  1.000000 O
   O43        1.0     0.135933      0.722653      0.075175     Biso  1.000000 O
   O44        1.0     0.128082      0.614928      0.037551     Biso  1.000000 O
   O45        1.0     0.044619      0.482867      0.176212     Biso  1.000000 O
   O46        1.0     0.120910      0.381004      0.110362     Biso  1.000000 O
   O47        1.0     0.271502      0.452213      0.219865     Biso  1.000000 O
   O48        1.0     0.299140      0.785098      0.077332     Biso  1.000000 O
   O49        1.0     0.274055      0.447196      0.338143     Biso  1.000000 O
   O50        1.0     0.234878      0.460353      0.548026     Biso  1.000000 O
   O51        1.0     0.201274      0.323488      0.610787     Biso  1.000000 O
   O52        1.0     0.084955      0.377475      0.718949     Biso  1.000000 O
   O53        1.0     0.205180      0.527533      0.675225     Biso  1.000000 O
   O54        1.0     0.340729      0.437150      0.662456     Biso  1.000000 O
   O55        1.0     0.367583      0.380877      0.789291     Biso  1.000000 O
   O56        1.0     0.374413      0.195383      0.792217     Biso  1.000000 O
   O57        1.0     0.269898      0.305183      0.426537     Biso  1.000000 O
   O58        1.0     0.410595      0.965423      0.189465     Biso  1.000000 O
   O59        1.0     0.441338      0.732988      0.103755     Biso  1.000000 O
   O60        1.0     0.353340      0.585937      0.271687     Biso  1.000000 O
   O61        1.0     0.325518      0.985883      0.273650     Biso  1.000000 O
   O62        1.0     0.249552      0.938033      0.416119     Biso  1.000000 O
   O63        1.0     0.216944      0.128355      0.422284     Biso  1.000000 O
   O64        1.0     0.187243      0.142791      0.525190     Biso  1.000000 O
   O65        1.0     0.140579      0.141193      0.634699     Biso  1.000000 O
   O66        1.0     0.211601      0.956026      0.699865     Biso  1.000000 O
   O67        1.0     0.340615      0.033668      0.832586     Biso  1.000000 O
   O68        1.0     0.437392      0.512214      0.146139     Biso  1.000000 O
   O69        1.0     0.368491      0.879235      0.720324     Biso  1.000000 O
   O70        1.0     0.284409      0.871080      0.557067     Biso  1.000000 O
   O71        1.0     0.361584      0.805791      0.436043     Biso  1.000000 O
   O72        1.0     0.353736      0.676338      0.476848     Biso  1.000000 O
   O73        1.0     0.478938      0.653595      0.645784     Biso  1.000000 O
   O74        1.0     0.409095      0.519854      0.492006     Biso  1.000000 O
   O75        1.0     0.589723      0.539734      0.463174     Biso  1.000000 O
   O76        1.0     0.431537      0.466258      0.367720     Biso  1.000000 O
   O77        1.0     0.428268      0.987970      0.573357     Biso  1.000000 O
   O78        1.0     0.304285      0.181088      0.301203     Biso  1.000000 O
   O79        1.0     0.591826      0.768590      0.507640     Biso  1.000000 O
   O80        1.0     0.195975      0.257847      0.060187     Biso  1.000000 O
   O81        1.0     0.819989      0.769525      0.152988     Biso  1.000000 O
   O82        1.0     0.753817      0.884433      0.179237     Biso  1.000000 O
   O83        1.0     0.857016      0.953259      0.286239     Biso  1.000000 O
   O84        1.0     0.898635      0.113980      0.224050     Biso  1.000000 O
   O85        1.0     0.708021      0.103866      0.225425     Biso  1.000000 O
   O86        1.0     0.760091      0.280274      0.135717     Biso  1.000000 O
   O87        1.0     0.904383      0.343782      0.190887     Biso  1.000000 O
   O88        1.0     0.930513      0.781298      0.323114     Biso  1.000000 O
   O89        1.0     0.857002      0.474818      0.249538     Biso  1.000000 O
   O90        1.0     0.907645      0.560981      0.470050     Biso  1.000000 O
   O91        1.0     0.957447      0.430517      0.526986     Biso  1.000000 O
   O92        1.0     0.884868      0.472622      0.707769     Biso  1.000000 O
   O93        1.0     0.864237      0.389658      0.769087     Biso  1.000000 O
   O94        1.0     0.814174      0.196162      0.671578     Biso  1.000000 O
   O95        1.0     0.859099      0.151934      0.836302     Biso  1.000000 O
   O96        1.0     0.711267      0.248323      0.853902     Biso  1.000000 O
   O97        1.0     0.790844      0.519198      0.341137     Biso  1.000000 O
   O98        1.0     0.830132      0.364094      0.959257     Biso  1.000000 O
   O99        1.0     0.917131      0.757875      0.419324     Biso  1.000000 O
   O100       1.0     0.755090      0.913334      0.440089     Biso  1.000000 O
   O101       1.0     0.123144      0.154894      0.910572     Biso  1.000000 O
   O102       1.0     0.545337      0.420320      0.088339     Biso  1.000000 O
   O103       1.0     0.432284      0.325401      0.208699     Biso  1.000000 O
   O104       1.0     0.592952      0.329933      0.325465     Biso  1.000000 O
   O105       1.0     0.548841      0.110368      0.297420     Biso  1.000000 O
   O106       1.0     0.658089      0.124895      0.394823     Biso  1.000000 O
   O107       1.0     0.493267      0.146757      0.420093     Biso  1.000000 O
   O108       1.0     0.706058      0.723200      0.434230     Biso  1.000000 O
   O109       1.0     0.442628      0.193575      0.502346     Biso  1.000000 O
   O110       1.0     0.469780      0.363369      0.668880     Biso  1.000000 O
   O111       1.0     0.538186      0.278865      0.726193     Biso  1.000000 O
   O112       1.0     0.504164      0.090872      0.682278     Biso  1.000000 O
   O113       1.0     0.682604      0.077081      0.786245     Biso  1.000000 O
   O114       1.0     0.652599      0.114415      0.606524     Biso  1.000000 O
   O115       1.0     0.776518      0.018525      0.672384     Biso  1.000000 O
   O116       1.0     0.794190      0.884067      0.623730     Biso  1.000000 O
   O117       1.0     0.378941      0.279028      0.550493     Biso  1.000000 O
   O118       1.0     0.781200      0.425033      0.053988     Biso  1.000000 O
   O119       1.0     0.541307      0.729865      0.278683     Biso  1.000000 O
   O120       1.0     0.686557      0.848490      0.330123     Biso  1.000000 O
   O121       1.0     0.638584      0.512619      0.795588     Biso  1.000000 O
   O122       1.0     0.834617      0.571943      0.819817     Biso  1.000000 O
   O123       1.0     0.708420      0.698729      0.910481     Biso  1.000000 O
   O124       1.0     0.682387      0.648477      0.036643     Biso  1.000000 O
   O125       1.0     0.502861      0.567222      0.015578     Biso  1.000000 O
   O126       1.0     0.414746      0.718537      0.959863     Biso  1.000000 O
   O127       1.0     0.544057      0.664891      0.816806     Biso  1.000000 O
   O128       1.0     0.702917      0.361159      0.736972     Biso  1.000000 O
   O129       1.0     0.476710      0.789985      0.721831     Biso  1.000000 O
   O130       1.0     0.631302      0.810250      0.815822     Biso  1.000000 O
   O131       1.0     0.722522      0.879173      0.813903     Biso  1.000000 O
   O132       1.0     0.753067      0.962355      0.025639     Biso  1.000000 O
   O133       1.0     0.850695      0.848570      0.894101     Biso  1.000000 O
   O134       1.0     0.959491      0.807385      0.985687     Biso  1.000000 O
   O135       1.0     0.862713      0.642855      0.012996     Biso  1.000000 O
   O136       1.0     0.830306      0.600481      0.124595     Biso  1.000000 O
   O137       1.0     0.494252      0.936048      0.860305     Biso  1.000000 O
   O138       1.0     0.615103      0.406931      0.574905     Biso  1.000000 O
   O139       1.0     0.710383      0.408724      0.513247     Biso  1.000000 O
   O140       1.0     0.775660      0.313530      0.440834     Biso  1.000000 O
   O141       1.0     0.570295      0.966984      0.463246     Biso  1.000000 O
   O142       1.0     0.591863      0.860310      0.653498     Biso  1.000000 O
   O143       1.0     0.637864      0.628386      0.627054     Biso  1.000000 O
   O144       1.0     0.757854      0.606495      0.625417     Biso  1.000000 O
   O145       1.0     0.888234      0.695838      0.752881     Biso  1.000000 O
   O146       1.0     0.873255      0.659395      0.563592     Biso  1.000000 O
   O147       1.0     0.990043      0.594787      0.651051     Biso  1.000000 O
   O148       1.0     0.083311      0.605332      0.557720     Biso  1.000000 O
   O149       1.0     0.184744      0.753539      0.613499     Biso  1.000000 O
   O150       1.0     0.154601      0.831174      0.482051     Biso  1.000000 O
   O151       1.0     0.133656      0.780679      0.367199     Biso  1.000000 O
   O152       1.0     0.159056      0.576453      0.349122     Biso  1.000000 O
   O153       1.0     0.962562      0.587922      0.333907     Biso  1.000000 O
   O154       1.0     0.065585      0.485870      0.410934     Biso  1.000000 O
   O155       1.0     0.999034      0.338833      0.301642     Biso  1.000000 O
   O156       1.0     0.012413      0.237506      0.432913     Biso  1.000000 O
   O157       1.0     0.852624      0.233087      0.410570     Biso  1.000000 O
   O158       1.0     0.368059      0.205870      0.191101     Biso  1.000000 O
   O159       1.0     0.686078      0.647502      0.334302     Biso  1.000000 O
   O160       1.0     0.884375      0.545592      0.107821     Biso  1.000000 O
   O161       1.0     0.694827      0.488370      0.226786     Biso  1.000000 O
   O162       1.0     0.304734      0.584437      0.740357     Biso  1.000000 O
   O163       1.0     0.205006      0.600706      0.893526     Biso  1.000000 O
   O164       1.0     0.351900      0.538698      0.952942     Biso  1.000000 O
   O165       1.0     0.285879      0.371408      0.022792     Biso  1.000000 O
   O166       1.0     0.450322      0.349458      0.043257     Biso  1.000000 O
   O167       1.0     0.536199      0.355012      0.867015     Biso  1.000000 O
   O168       1.0     0.508974      0.180896      0.967685     Biso  1.000000 O
   O169       1.0     0.316762      0.762106      0.819085     Biso  1.000000 O
   O170       1.0     0.582086      0.214739      0.123275     Biso  1.000000 O
   O171       1.0     0.574402      0.025176      0.152545     Biso  1.000000 O
   O172       1.0     0.563881      0.923158      0.991638     Biso  1.000000 O
   O173       1.0     0.464772      0.031726      0.977123     Biso  1.000000 O
   O174       1.0     0.329722      0.837579      0.968566     Biso  1.000000 O
   O175       1.0     0.314853      0.020739      0.072524     Biso  1.000000 O
   O176       1.0     0.165762      0.892425      0.029511     Biso  1.000000 O
   O177       1.0     0.426218      0.895783      0.153260     Biso  1.000000 O
   O178       1.0     0.697738      0.100899      0.053907     Biso  1.000000 O
   O179       1.0     0.465800      0.842125      0.370510     Biso  1.000000 O
   O180       1.0     0.161796      0.761900      0.738374     Biso  1.000000 O
   O181       1.0     0.990203      0.641942      0.837285     Biso  1.000000 O
   O182       1.0     0.073557      0.946089      0.381731     Biso  1.000000 O
   O183       1.0     0.965017      0.102826      0.355818     Biso  1.000000 O
   O184       1.0     0.891071      0.009110      0.422839     Biso  1.000000 O
   O185       1.0     0.090489      0.982112      0.514431     Biso  1.000000 O
   O186       1.0     0.005238      0.847324      0.607742     Biso  1.000000 O
   O187       1.0     0.917396      0.860405      0.724043     Biso  1.000000 O
   O188       1.0     0.070475      0.014711      0.728047     Biso  1.000000 O
   O189       1.0     0.121996      0.703420      0.898657     Biso  1.000000 O
   O190       1.0     0.080042      0.908204      0.864528     Biso  1.000000 O
   O191       1.0     0.905753      0.012664      0.078101     Biso  1.000000 O
   O192       1.0     0.062814      0.064250      0.077812     Biso  1.000000 O
   O193       1.0     0.024019      0.244404      0.123775     Biso  1.000000 O
   O194       1.0     0.948182      0.319706      0.042941     Biso  1.000000 O
   O195       1.0     0.099650      0.324177      0.973779     Biso  1.000000 O
   O196       1.0     0.956302      0.432245      0.944943     Biso  1.000000 O
   O197       1.0     0.071510      0.446457      0.827877     Biso  1.000000 O
   O198       1.0     0.949817      0.939775      0.913767     Biso  1.000000 O
   O199       1.0     0.076739      0.990071      0.223581     Biso  1.000000 O
   O200       1.0     0.298829      0.923778      0.313986     Biso  1.000000 O
   O201       1.0     0.284553      0.148130      0.448592     Biso  1.000000 O
   O202       1.0     0.053472      0.629440      0.058840     Biso  1.000000 O
   O203       1.0     0.036316      0.463418      0.101196     Biso  1.000000 O
   O204       1.0     0.101560      0.384337      0.183357     Biso  1.000000 O
   O205       1.0     0.286911      0.374012      0.200043     Biso  1.000000 O
   O206       1.0     0.308154      0.378301      0.315456     Biso  1.000000 O
   O207       1.0     0.287048      0.386974      0.421852     Biso  1.000000 O
   O208       1.0     0.169935      0.479219      0.509719     Biso  1.000000 O
   O209       1.0     0.064972      0.750746      0.082636     Biso  1.000000 O
   O210       1.0     0.144739      0.276159      0.585851     Biso  1.000000 O
   O211       1.0     0.181126      0.529222      0.749088     Biso  1.000000 O
   O212       1.0     0.291255      0.385898      0.626945     Biso  1.000000 O
   O213       1.0     0.296896      0.375903      0.822491     Biso  1.000000 O
   O214       1.0     0.365791      0.271033      0.819725     Biso  1.000000 O
   O215       1.0     0.306258      0.201897      0.887480     Biso  1.000000 O
   O216       1.0     0.133445      0.145906      0.833882     Biso  1.000000 O
   O217       1.0     0.624207      0.665445      0.142345     Biso  1.000000 O
   O218       1.0     0.116770      0.321021      0.675052     Biso  1.000000 O
   O219       1.0     0.226490      0.989165      0.360605     Biso  1.000000 O
   O220       1.0     0.147309      0.817296      0.122751     Biso  1.000000 O
   O221       1.0     0.281936      0.710423      0.096382     Biso  1.000000 O
   O222       1.0     0.242511      0.193499      0.548571     Biso  1.000000 O
   O223       1.0     0.208288      0.155669      0.670037     Biso  1.000000 O
   O224       1.0     0.171175      0.970277      0.764123     Biso  1.000000 O
   O225       1.0     0.349974      0.082565      0.769465     Biso  1.000000 O
   O226       1.0     0.298363      0.896123      0.697855     Biso  1.000000 O
   O227       1.0     0.363610      0.028299      0.554872     Biso  1.000000 O
   O228       1.0     0.307313      0.909885      0.491537     Biso  1.000000 O
   O229       1.0     0.259554      0.739338      0.288944     Biso  1.000000 O
   O230       1.0     0.309899      0.784033      0.491975     Biso  1.000000 O
   O231       1.0     0.485181      0.691252      0.580615     Biso  1.000000 O
   O232       1.0     0.446128      0.497473      0.554705     Biso  1.000000 O
   O233       1.0     0.565274      0.614725      0.441647     Biso  1.000000 O
   O234       1.0     0.500372      0.468953      0.330110     Biso  1.000000 O
   O235       1.0     0.403719      0.646723      0.292935     Biso  1.000000 O
   O236       1.0     0.369790      0.549848      0.143053     Biso  1.000000 O
   O237       1.0     0.443921      0.732694      0.182065     Biso  1.000000 O
   O238       1.0     0.305558      0.650487      0.528646     Biso  1.000000 O
   O239       1.0     0.141202      0.164120      0.179054     Biso  1.000000 O
   O240       1.0     0.315965      0.111513      0.260595     Biso  1.000000 O
   O241       1.0     0.354181      0.130021      0.161518     Biso  1.000000 O
   O242       1.0     0.784754      0.888603      0.110655     Biso  1.000000 O
   O243       1.0     0.781294      0.946064      0.280397     Biso  1.000000 O
   O244       1.0     0.867088      0.129876      0.292612     Biso  1.000000 O
   O245       1.0     0.718308      0.168225      0.274246     Biso  1.000000 O
   O246       1.0     0.831636      0.256224      0.148360     Biso  1.000000 O
   O247       1.0     0.832393      0.367810      0.182786     Biso  1.000000 O
   O248       1.0     0.917225      0.424862      0.264365     Biso  1.000000 O
   O249       1.0     0.769641      0.777900      0.211315     Biso  1.000000 O
   O250       1.0     0.761471      0.460016      0.384364     Biso  1.000000 O
   O251       1.0     0.963316      0.504233      0.565777     Biso  1.000000 O
   O252       1.0     0.825245      0.466544      0.657206     Biso  1.000000 O
   O253       1.0     0.932084      0.356856      0.743681     Biso  1.000000 O
   O254       1.0     0.766566      0.237064      0.717354     Biso  1.000000 O
   O255       1.0     0.893721      0.217662      0.869254     Biso  1.000000 O
   O256       1.0     0.710336      0.186968      0.909378     Biso  1.000000 O
   O257       1.0     0.813816      0.376566      0.883608     Biso  1.000000 O
   O258       1.0     0.936465      0.494669      0.436972     Biso  1.000000 O
   O259       1.0     0.784215      0.473912      0.990468     Biso  1.000000 O
   O260       1.0     0.918612      0.711618      0.280493     Biso  1.000000 O
   O261       1.0     0.756581      0.708492      0.492921     Biso  1.000000 O
   O262       1.0     0.611298      0.385485      0.113357     Biso  1.000000 O
   O263       1.0     0.456247      0.400497      0.223832     Biso  1.000000 O
   O264       1.0     0.614614      0.308455      0.253692     Biso  1.000000 O
   O265       1.0     0.485912      0.154455      0.305514     Biso  1.000000 O
   O266       1.0     0.583593      0.105464      0.380788     Biso  1.000000 O
   O267       1.0     0.535784      0.126076      0.480836     Biso  1.000000 O
   O268       1.0     0.397884      0.232399      0.452715     Biso  1.000000 O
   O269       1.0     0.895325      0.678066      0.425969     Biso  1.000000 O
   O270       1.0     0.375404      0.355744      0.522546     Biso  1.000000 O
   O271       1.0     0.466661      0.260582      0.751197     Biso  1.000000 O
   O272       1.0     0.501491      0.088376      0.760026     Biso  1.000000 O
   O273       1.0     0.677871      0.148402      0.752932     Biso  1.000000 O
   O274       1.0     0.588242      0.076385      0.585905     Biso  1.000000 O
   O275       1.0     0.732715      0.957624      0.688821     Biso  1.000000 O
   O276       1.0     0.837963      0.954519      0.612815     Biso  1.000000 O
   O277       1.0     0.826558      0.893732      0.427187     Biso  1.000000 O
   O278       1.0     0.533111      0.349024      0.627044     Biso  1.000000 O
   O279       1.0     0.594064      0.779813      0.252195     Biso  1.000000 O
   O280       1.0     0.648998      0.896362      0.276777     Biso  1.000000 O
   O281       1.0     0.645846      0.958153      0.449350     Biso  1.000000 O
   O282       1.0     0.666942      0.456886      0.846842     Biso  1.000000 O
   O283       1.0     0.802980      0.543081      0.882707     Biso  1.000000 O
   O284       1.0     0.654160      0.656711      0.870693     Biso  1.000000 O
   O285       1.0     0.639002      0.696233      0.991716     Biso  1.000000 O
   O286       1.0     0.536889      0.535753      0.953892     Biso  1.000000 O
   O287       1.0     0.487670      0.739016      0.949795     Biso  1.000000 O
   O288       1.0     0.486528      0.615845      0.791815     Biso  1.000000 O
   O289       1.0     0.643193      0.388524      0.775412     Biso  1.000000 O
   O290       1.0     0.534360      0.739483      0.750592     Biso  1.000000 O
   O291       1.0     0.627878      0.876732      0.767954     Biso  1.000000 O
   O292       1.0     0.746699      0.958171      0.821100     Biso  1.000000 O
   O293       1.0     0.780949      0.978950      0.953933     Biso  1.000000 O
   O294       1.0     0.799506      0.791826      0.916061     Biso  1.000000 O
   O295       1.0     0.927401      0.838756      0.049500     Biso  1.000000 O
   O296       1.0     0.939909      0.629252      0.013853     Biso  1.000000 O
   O297       1.0     0.271325      0.269472      0.072504     Biso  1.000000 O
   O298       1.0     0.507259      0.905437      0.792234     Biso  1.000000 O
   O299       1.0     0.658206      0.471757      0.594500     Biso  1.000000 O
   O300       1.0     0.681194      0.341453      0.486542     Biso  1.000000 O
   O301       1.0     0.748699      0.240937      0.468213     Biso  1.000000 O
   O302       1.0     0.535754      0.812590      0.540967     Biso  1.000000 O
   O303       1.0     0.572134      0.783733      0.641065     Biso  1.000000 O
   O304       1.0     0.661053      0.664072      0.559942     Biso  1.000000 O
   O305       1.0     0.723463      0.608773      0.696334     Biso  1.000000 O
   O306       1.0     0.834908      0.746609      0.727578     Biso  1.000000 O
   O307       1.0     0.884124      0.739882      0.543981     Biso  1.000000 O
   O308       1.0     0.003808      0.661482      0.694207     Biso  1.000000 O
   O309       1.0     0.089005      0.591095      0.633369     Biso  1.000000 O
   O310       1.0     0.218883      0.681228      0.623587     Biso  1.000000 O
   O311       1.0     0.096950      0.776158      0.487250     Biso  1.000000 O
   O312       1.0     0.068897      0.746576      0.394837     Biso  1.000000 O
   O313       1.0     0.153968      0.619018      0.282765     Biso  1.000000 O
   O314       1.0     0.985969      0.593935      0.260752     Biso  1.000000 O
   O315       1.0     0.118696      0.465033      0.355141     Biso  1.000000 O
   O316       1.0     0.055988      0.301894      0.335513     Biso  1.000000 O
   O317       1.0     0.003754      0.299655      0.483224     Biso  1.000000 O
   O318       1.0     0.859863      0.184599      0.471143     Biso  1.000000 O
   O319       1.0     0.576562      0.605325      0.129807     Biso  1.000000 O
   O320       1.0     0.665461      0.692553      0.271418     Biso  1.000000 O

# Number_of_total_atoms: 2408
# Number_of_atom_type: 3
# Name_of_each_atom:  C  H O
# Number_of_each_atom: 800 1288 320
# Created_by: Lihua Chen (lihua.chen@mse.gatech.edu)
# Tool: VASP 
# K-points: 1 1 1
# Pseudopotential: PBE-HSE06
# Material_class: MC_Pol
# Geometry_class: GC_PD
# Bandgap_(eV): 5.0

# Note: average bandgap of 5 configurations
# Note:  HSE06 Band gap is derived from PBE band gap, based on Eg (HSE06)=1.140*Eg (PBE) + 0.799, R2=0.97
