#======================================================================

# Note: Amorphous region of polyethylene terephthalate
# Common_name: Amorphous region
#----------------------------------------------------------------------

data_VESTA_phase_1

_chemical_name_common                  'POSCAR file written by OVITO          '
_cell_length_a                         36.48792
_cell_length_b                         15.16408
_cell_length_c                         36.45348
_cell_angle_alpha                      90
_cell_angle_beta                       90
_cell_angle_gamma                      90
_space_group_name_H-M_alt              'P 1'
_space_group_IT_number                 1

loop_
_space_group_symop_operation_xyz
   'x, y, z'

loop_
   _atom_site_label
   _atom_site_occupancy
   _atom_site_fract_x
   _atom_site_fract_y
   _atom_site_fract_z
   _atom_site_adp_type
   _atom_site_B_iso_or_equiv
   _atom_site_type_symbol
   C1         1.0     0.175771      0.298903      0.067888     Biso  1.000000 C
   C2         1.0     0.210341      0.215489      0.114413     Biso  1.000000 C
   C3         1.0     0.184333      0.337527      0.030278     Biso  1.000000 C
   C4         1.0     0.068604      0.008388      0.116470     Biso  1.000000 C
   C5         1.0     0.249952      0.049142      0.009759     Biso  1.000000 C
   C6         1.0     0.103213      0.055479      0.043308     Biso  1.000000 C
   C7         1.0     0.207477      0.112238      0.114769     Biso  1.000000 C
   C8         1.0     0.220276      0.005809      0.070713     Biso  1.000000 C
   C9         1.0     0.158412      0.388813      0.013023     Biso  1.000000 C
   C10        1.0     0.024617      0.302431      0.161706     Biso  1.000000 C
   C11        1.0     0.185919      0.463971      0.137922     Biso  1.000000 C
   C12        1.0     0.226779      0.457640      0.134082     Biso  1.000000 C
   C13        1.0     0.218379      0.323171      0.009512     Biso  1.000000 C
   C14        1.0     0.114474      0.121629      0.323638     Biso  1.000000 C
   C15        1.0     0.037991      0.215884      0.164038     Biso  1.000000 C
   C16        1.0     0.061615      0.017844      0.322212     Biso  1.000000 C
   C17        1.0     0.072764      0.198514      0.174956     Biso  1.000000 C
   C18        1.0     0.106904      0.139065      0.285837     Biso  1.000000 C
   C19        1.0     0.081685      0.091353      0.266963     Biso  1.000000 C
   C20        1.0     0.121142      0.484776      0.288690     Biso  1.000000 C
   C21        1.0     0.235988      0.347135      0.309675     Biso  1.000000 C
   C22        1.0     0.211964      0.014454      0.226419     Biso  1.000000 C
   C23        1.0     0.099584      0.399648      0.290500     Biso  1.000000 C
   C24        1.0     0.193050      0.324516      0.219423     Biso  1.000000 C
   C25        1.0     0.057452      0.031844      0.286221     Biso  1.000000 C
   C26        1.0     0.136761      0.256995      0.193225     Biso  1.000000 C
   C27        1.0     0.037043      0.343146      0.286934     Biso  1.000000 C
   C28        1.0     0.098266      0.271509      0.179756     Biso  1.000000 C
   C29        1.0     0.047997      0.374378      0.167823     Biso  1.000000 C
   C30        1.0     0.205592      0.374701      0.252891     Biso  1.000000 C
   C31        1.0     0.084639      0.358603      0.177013     Biso  1.000000 C
   C32        1.0     0.249672      0.185200      0.329783     Biso  1.000000 C
   C33        1.0     0.119456      0.040661      0.006165     Biso  1.000000 C
   C34        1.0     0.086188      0.497721      0.079903     Biso  1.000000 C
   C35        1.0     0.096268      0.254317      0.428018     Biso  1.000000 C
   C36        1.0     0.034713      0.167131      0.423108     Biso  1.000000 C
   C37        1.0     0.056186      0.244445      0.417073     Biso  1.000000 C
   C38        1.0     0.038440      0.311057      0.396828     Biso  1.000000 C
   C39        1.0     0.152445      0.166399      0.440856     Biso  1.000000 C
   C40        1.0     0.172394      0.179990      0.402588     Biso  1.000000 C
   C41        1.0     0.183864      0.446040      0.382096     Biso  1.000000 C
   C42        1.0     0.201922      0.434249      0.416688     Biso  1.000000 C
   C43        1.0     0.092327      0.057147      0.340866     Biso  1.000000 C
   C44        1.0     0.040611      0.409315      0.499534     Biso  1.000000 C
   C45        1.0     0.232971      0.495796      0.472650     Biso  1.000000 C
   C46        1.0     0.054070      0.300288      0.659354     Biso  1.000000 C
   C47        1.0     0.000414      0.276923      0.510589     Biso  1.000000 C
   C48        1.0     0.109039      0.353888      0.627670     Biso  1.000000 C
   C49        1.0     0.004032      0.083644      0.615078     Biso  1.000000 C
   C50        1.0     0.013890      0.074656      0.577743     Biso  1.000000 C
   C51        1.0     0.240461      0.394557      0.524662     Biso  1.000000 C
   C52        1.0     0.203511      0.146246      0.621909     Biso  1.000000 C
   C53        1.0     0.180057      0.146800      0.653154     Biso  1.000000 C
   C54        1.0     0.107518      0.398289      0.506995     Biso  1.000000 C
   C55        1.0     0.060404      0.032293      0.529819     Biso  1.000000 C
   C56        1.0     0.147542      0.165806      0.342868     Biso  1.000000 C
   C57        1.0     0.043639      0.021260      0.566852     Biso  1.000000 C
   C58        1.0     0.212969      0.130307      0.554316     Biso  1.000000 C
   C59        1.0     0.126182      0.117804      0.614859     Biso  1.000000 C
   C60        1.0     0.077053      0.298573      0.628630     Biso  1.000000 C
   C61        1.0     0.137062      0.345210      0.526938     Biso  1.000000 C
   C62        1.0     0.133502      0.357812      0.595547     Biso  1.000000 C
   C63        1.0     0.149894      0.108552      0.584464     Biso  1.000000 C
   C64        1.0     0.188548      0.128890      0.587646     Biso  1.000000 C
   C65        1.0     0.018612      0.021985      0.641166     Biso  1.000000 C
   C66        1.0     0.114468      0.416015      0.657872     Biso  1.000000 C
   C67        1.0     0.142669      0.131112      0.650384     Biso  1.000000 C
   C68        1.0     0.004467      0.365646      0.499534     Biso  1.000000 C
   C69        1.0     0.001436      0.305438      0.386760     Biso  1.000000 C
   C70        1.0     0.194854      0.086493      0.763158     Biso  1.000000 C
   C71        1.0     0.129632      0.081099      0.768726     Biso  1.000000 C
   C72        1.0     0.119229      0.168397      0.749825     Biso  1.000000 C
   C73        1.0     0.198756      0.422735      0.730678     Biso  1.000000 C
   C74        1.0     0.220947      0.197598      0.807954     Biso  1.000000 C
   C75        1.0     0.221926      0.156217      0.773307     Biso  1.000000 C
   C76        1.0     0.037306      0.353961      0.724615     Biso  1.000000 C
   C77        1.0     0.059645      0.355959      0.689941     Biso  1.000000 C
   C78        1.0     0.215343      0.384678      0.694549     Biso  1.000000 C
   C79        1.0     0.160486      0.013591      0.897054     Biso  1.000000 C
   C80        1.0     0.089087      0.417941      0.686567     Biso  1.000000 C
   C81        1.0     0.026974      0.210925      0.912416     Biso  1.000000 C
   C82        1.0     0.247803      0.187924      0.748509     Biso  1.000000 C
   C83        1.0     0.119686      0.141109      0.684207     Biso  1.000000 C
   C84        1.0     0.144473      0.028072      0.935377     Biso  1.000000 C
   C85        1.0     0.008981      0.031726      0.680285     Biso  1.000000 C
   C86        1.0     0.163630      0.425999      0.977321     Biso  1.000000 C
   C87        1.0     0.245750      0.266267      0.817034     Biso  1.000000 C
   C88        1.0     0.017401      0.176660      0.979570     Biso  1.000000 C
   C89        1.0     0.038926      0.213378      0.948928     Biso  1.000000 C
   C90        1.0     0.155994      0.418798      0.849240     Biso  1.000000 C
   C91        1.0     0.196005      0.411689      0.958118     Biso  1.000000 C
   C92        1.0     0.056827      0.480055      0.971149     Biso  1.000000 C
   C93        1.0     0.075305      0.239902      0.956994     Biso  1.000000 C
   C94        1.0     0.049935      0.250651      0.884984     Biso  1.000000 C
   C95        1.0     0.201831      0.440178      0.918725     Biso  1.000000 C
   C96        1.0     0.084431      0.282891      0.892802     Biso  1.000000 C
   C97        1.0     0.097887      0.278256      0.928711     Biso  1.000000 C
   C98        1.0     0.150513      0.086876      0.996468     Biso  1.000000 C
   C99        1.0     0.106833      0.312422      0.860597     Biso  1.000000 C
   C100       1.0     0.164954      0.079516      0.960807     Biso  1.000000 C
   C101       1.0     0.224858      0.366682      0.975867     Biso  1.000000 C
   C102       1.0     0.055386      0.497504      0.933841     Biso  1.000000 C
   C103       1.0     0.164619      0.729381      0.138608     Biso  1.000000 C
   C104       1.0     0.150275      0.813316      0.135920     Biso  1.000000 C
   C105       1.0     0.137849      0.613034      0.042568     Biso  1.000000 C
   C106       1.0     0.090915      0.597207      0.086213     Biso  1.000000 C
   C107       1.0     0.039010      0.513284      0.036368     Biso  1.000000 C
   C108       1.0     0.104503      0.925476      0.159511     Biso  1.000000 C
   C109       1.0     0.130106      0.847153      0.164724     Biso  1.000000 C
   C110       1.0     0.184464      0.960961      0.250669     Biso  1.000000 C
   C111       1.0     0.148299      0.648869      0.005315     Biso  1.000000 C
   C112       1.0     0.248990      0.576922      0.092796     Biso  1.000000 C
   C113       1.0     0.166973      0.688027      0.173419     Biso  1.000000 C
   C114       1.0     0.167456      0.550518      0.328576     Biso  1.000000 C
   C115       1.0     0.216390      0.911634      0.013736     Biso  1.000000 C
   C116       1.0     0.242905      0.771665      0.285727     Biso  1.000000 C
   C117       1.0     0.048616      0.715691      0.297632     Biso  1.000000 C
   C118       1.0     0.228150      0.990366      0.031266     Biso  1.000000 C
   C119       1.0     0.234878      0.707777      0.257911     Biso  1.000000 C
   C120       1.0     0.102634      0.795926      0.311129     Biso  1.000000 C
   C121       1.0     0.154435      0.731307      0.205789     Biso  1.000000 C
   C122       1.0     0.049685      0.706603      0.255414     Biso  1.000000 C
   C123       1.0     0.011204      0.669727      0.203650     Biso  1.000000 C
   C124       1.0     0.224625      0.863685      0.285645     Biso  1.000000 C
   C125       1.0     0.135415      0.812459      0.201867     Biso  1.000000 C
   C126       1.0     0.179175      0.592835      0.174352     Biso  1.000000 C
   C127       1.0     0.023271      0.989746      0.267155     Biso  1.000000 C
   C128       1.0     0.054829      0.996143      0.078943     Biso  1.000000 C
   C129       1.0     0.079440      0.609400      0.433011     Biso  1.000000 C
   C130       1.0     0.047558      0.655489      0.437866     Biso  1.000000 C
   C131       1.0     0.184576      0.834386      0.400860     Biso  1.000000 C
   C132       1.0     0.213748      0.850173      0.428676     Biso  1.000000 C
   C133       1.0     0.162369      0.759676      0.398172     Biso  1.000000 C
   C134       1.0     0.052429      0.887076      0.423217     Biso  1.000000 C
   C135       1.0     0.114181      0.624060      0.456218     Biso  1.000000 C
   C136       1.0     0.135621      0.747285      0.370877     Biso  1.000000 C
   C137       1.0     0.176933      0.898768      0.374745     Biso  1.000000 C
   C138       1.0     0.095583      0.912696      0.470840     Biso  1.000000 C
   C139       1.0     0.211158      0.595888      0.378640     Biso  1.000000 C
   C140       1.0     0.231184      0.580634      0.413150     Biso  1.000000 C
   C141       1.0     0.019842      0.588917      0.383441     Biso  1.000000 C
   C142       1.0     0.017412      0.647589      0.414247     Biso  1.000000 C
   C143       1.0     0.083222      0.554837      0.401354     Biso  1.000000 C
   C144       1.0     0.053835      0.544285      0.378009     Biso  1.000000 C
   C145       1.0     0.131071      0.810362      0.341936     Biso  1.000000 C
   C146       1.0     0.187169      0.528934      0.363799     Biso  1.000000 C
   C147       1.0     0.111689      0.984893      0.493828     Biso  1.000000 C
   C148       1.0     0.151034      0.888105      0.346380     Biso  1.000000 C
   C149       1.0     0.244150      0.750094      0.545181     Biso  1.000000 C
   C150       1.0     0.081202      0.730561      0.641221     Biso  1.000000 C
   C151       1.0     0.012752      0.893704      0.416250     Biso  1.000000 C
   C152       1.0     0.114581      0.702779      0.581831     Biso  1.000000 C
   C153       1.0     0.187690      0.885526      0.656693     Biso  1.000000 C
   C154       1.0     0.057266      0.960440      0.592419     Biso  1.000000 C
   C155       1.0     0.088769      0.675972      0.610881     Biso  1.000000 C
   C156       1.0     0.069574      0.590223      0.611786     Biso  1.000000 C
   C157       1.0     0.196260      0.723578      0.647860     Biso  1.000000 C
   C158       1.0     0.045503      0.961067      0.630495     Biso  1.000000 C
   C159       1.0     0.225171      0.826334      0.602652     Biso  1.000000 C
   C160       1.0     0.140425      0.711325      0.499891     Biso  1.000000 C
   C161       1.0     0.041976      0.569530      0.636750     Biso  1.000000 C
   C162       1.0     0.202793      0.812690      0.636832     Biso  1.000000 C
   C163       1.0     0.029750      0.718243      0.533166     Biso  1.000000 C
   C164       1.0     0.150450      0.649356      0.530669     Biso  1.000000 C
   C165       1.0     0.245328      0.957736      0.463515     Biso  1.000000 C
   C166       1.0     0.033691      0.633622      0.665224     Biso  1.000000 C
   C167       1.0     0.223693      0.502324      0.432517     Biso  1.000000 C
   C168       1.0     0.102541      0.660112      0.767739     Biso  1.000000 C
   C169       1.0     0.133672      0.766258      0.730129     Biso  1.000000 C
   C170       1.0     0.217985      0.650893      0.762225     Biso  1.000000 C
   C171       1.0     0.218865      0.698954      0.795720     Biso  1.000000 C
   C172       1.0     0.158554      0.780719      0.698033     Biso  1.000000 C
   C173       1.0     0.231258      0.787136      0.797805     Biso  1.000000 C
   C174       1.0     0.031633      0.852731      0.825840     Biso  1.000000 C
   C175       1.0     0.163515      0.867128      0.684893     Biso  1.000000 C
   C176       1.0     0.202588      0.557356      0.761210     Biso  1.000000 C
   C177       1.0     0.121136      0.694384      0.985825     Biso  1.000000 C
   C178       1.0     0.231729      0.688725      0.728373     Biso  1.000000 C
   C179       1.0     0.032414      0.524832      0.817994     Biso  1.000000 C
   C180       1.0     0.188282      0.669120      0.952083     Biso  1.000000 C
   C181       1.0     0.184037      0.640085      0.988184     Biso  1.000000 C
   C182       1.0     0.028582      0.902922      0.764172     Biso  1.000000 C
   C183       1.0     0.126332      0.727772      0.950684     Biso  1.000000 C
   C184       1.0     0.168856      0.506571      0.868744     Biso  1.000000 C
   C185       1.0     0.101300      0.986172      0.981737     Biso  1.000000 C
   C186       1.0     0.027017      0.874705      0.865068     Biso  1.000000 C
   C187       1.0     0.110631      0.990287      0.944676     Biso  1.000000 C
   C188       1.0     0.167064      0.745274      0.894695     Biso  1.000000 C
   C189       1.0     0.226155      0.897924      0.976004     Biso  1.000000 C
   C190       1.0     0.157787      0.912551      0.849130     Biso  1.000000 C
   C191       1.0     0.039635      0.814160      0.892034     Biso  1.000000 C
   C192       1.0     0.140924      0.819344      0.843013     Biso  1.000000 C
   C193       1.0     0.028741      0.553736      0.919686     Biso  1.000000 C
   C194       1.0     0.029909      0.836377      0.929946     Biso  1.000000 C
   C195       1.0     0.021262      0.564564      0.878565     Biso  1.000000 C
   C196       1.0     0.159933      0.717709      0.933786     Biso  1.000000 C
   C197       1.0     0.005701      0.608740      0.693781     Biso  1.000000 C
   C198       1.0     0.001889      0.924348      0.980064     Biso  1.000000 C
   C199       1.0     0.008518      0.909168      0.939053     Biso  1.000000 C
   C200       1.0     0.174129      0.709999      0.678200     Biso  1.000000 C
   C201       1.0     0.008447      0.582771      0.982012     Biso  1.000000 C
   C202       1.0     0.004865      0.592861      0.944841     Biso  1.000000 C
   C203       1.0     0.014605      0.982749      0.741541     Biso  1.000000 C
   C204       1.0     0.246071      0.821322      0.766312     Biso  1.000000 C
   C205       1.0     0.003856      0.945312      0.875136     Biso  1.000000 C
   C206       1.0     0.033724      0.523921      0.995947     Biso  1.000000 C
   C207       1.0     0.248910      0.949902      0.955430     Biso  1.000000 C
   C208       1.0     0.244933      0.776275      0.731940     Biso  1.000000 C
   C209       1.0     0.053481      0.711820      0.667968     Biso  1.000000 C
   C210       1.0     0.322732      0.350321      0.077352     Biso  1.000000 C
   C211       1.0     0.305257      0.287250      0.057985     Biso  1.000000 C
   C212       1.0     0.322458      0.348705      0.119131     Biso  1.000000 C
   C213       1.0     0.377150      0.154997      0.075925     Biso  1.000000 C
   C214       1.0     0.403254      0.223290      0.061633     Biso  1.000000 C
   C215       1.0     0.366823      0.145943      0.113096     Biso  1.000000 C
   C216       1.0     0.347038      0.402569      0.057656     Biso  1.000000 C
   C217       1.0     0.361539      0.094176      0.050386     Biso  1.000000 C
   C218       1.0     0.345783      0.074062      0.125358     Biso  1.000000 C
   C219       1.0     0.473083      0.307212      0.150486     Biso  1.000000 C
   C220       1.0     0.477756      0.044268      0.067476     Biso  1.000000 C
   C221       1.0     0.334659      0.013505      0.099352     Biso  1.000000 C
   C222       1.0     0.311180      0.266814      0.019799     Biso  1.000000 C
   C223       1.0     0.487852      0.117316      0.042211     Biso  1.000000 C
   C224       1.0     0.339532      0.025560      0.061386     Biso  1.000000 C
   C225       1.0     0.359582      0.457271      0.302186     Biso  1.000000 C
   C226       1.0     0.348888      0.414176      0.174983     Biso  1.000000 C
   C227       1.0     0.481762      0.002492      0.224416     Biso  1.000000 C
   C228       1.0     0.441500      0.264315      0.009759     Biso  1.000000 C
   C229       1.0     0.353117      0.391655      0.020348     Biso  1.000000 C
   C230       1.0     0.468048      0.355998      0.182390     Biso  1.000000 C
   C231       1.0     0.499988      0.397261      0.197642     Biso  1.000000 C
   C232       1.0     0.494186      0.180630      0.240025     Biso  1.000000 C
   C233       1.0     0.495189      0.037364      0.101081     Biso  1.000000 C
   C234       1.0     0.451366      0.061592      0.226364     Biso  1.000000 C
   C235       1.0     0.263920      0.099603      0.237337     Biso  1.000000 C
   C236       1.0     0.432310      0.359131      0.203128     Biso  1.000000 C
   C237       1.0     0.299762      0.102070      0.258103     Biso  1.000000 C
   C238       1.0     0.351802      0.176396      0.285809     Biso  1.000000 C
   C239       1.0     0.400385      0.094064      0.320237     Biso  1.000000 C
   C240       1.0     0.458930      0.151680      0.234895     Biso  1.000000 C
   C241       1.0     0.314181      0.020983      0.272313     Biso  1.000000 C
   C242       1.0     0.347313      0.017903      0.293518     Biso  1.000000 C
   C243       1.0     0.365582      0.096616      0.301007     Biso  1.000000 C
   C244       1.0     0.320131      0.178817      0.263781     Biso  1.000000 C
   C245       1.0     0.368413      0.341049      0.195941     Biso  1.000000 C
   C246       1.0     0.412526      0.034258      0.214952     Biso  1.000000 C
   C247       1.0     0.336843      0.321647      0.000788     Biso  1.000000 C
   C248       1.0     0.415900      0.332832      0.438854     Biso  1.000000 C
   C249       1.0     0.378794      0.309184      0.436248     Biso  1.000000 C
   C250       1.0     0.443161      0.285707      0.415289     Biso  1.000000 C
   C251       1.0     0.283653      0.153817      0.386486     Biso  1.000000 C
   C252       1.0     0.354013      0.343528      0.460909     Biso  1.000000 C
   C253       1.0     0.452879      0.152992      0.382645     Biso  1.000000 C
   C254       1.0     0.427471      0.401382      0.461869     Biso  1.000000 C
   C255       1.0     0.285158      0.246463      0.389256     Biso  1.000000 C
   C256       1.0     0.272326      0.309118      0.364156     Biso  1.000000 C
   C257       1.0     0.297211      0.096451      0.418636     Biso  1.000000 C
   C258       1.0     0.263339      0.118938      0.356200     Biso  1.000000 C
   C259       1.0     0.402492      0.440184      0.485543     Biso  1.000000 C
   C260       1.0     0.365554      0.406242      0.486037     Biso  1.000000 C
   C261       1.0     0.458100      0.112258      0.481182     Biso  1.000000 C
   C262       1.0     0.458092      0.025593      0.469688     Biso  1.000000 C
   C263       1.0     0.260547      0.433814      0.655870     Biso  1.000000 C
   C264       1.0     0.393607      0.094314      0.502058     Biso  1.000000 C
   C265       1.0     0.425292      0.148390      0.496681     Biso  1.000000 C
   C266       1.0     0.361079      0.415613      0.341058     Biso  1.000000 C
   C267       1.0     0.303950      0.074873      0.550613     Biso  1.000000 C
   C268       1.0     0.420630      0.487203      0.648957     Biso  1.000000 C
   C269       1.0     0.399568      0.328875      0.583778     Biso  1.000000 C
   C270       1.0     0.299689      0.450808      0.655047     Biso  1.000000 C
   C271       1.0     0.379268      0.475834      0.650082     Biso  1.000000 C
   C272       1.0     0.432102      0.194208      0.598756     Biso  1.000000 C
   C273       1.0     0.337844      0.176977      0.641413     Biso  1.000000 C
   C274       1.0     0.358292      0.123073      0.519559     Biso  1.000000 C
   C275       1.0     0.339304      0.443805      0.514073     Biso  1.000000 C
   C276       1.0     0.368689      0.299141      0.603694     Biso  1.000000 C
   C277       1.0     0.469994      0.312956      0.564164     Biso  1.000000 C
   C278       1.0     0.370386      0.215515      0.622293     Biso  1.000000 C
   C279       1.0     0.402081      0.162297      0.617026     Biso  1.000000 C
   C280       1.0     0.274025      0.139296      0.534812     Biso  1.000000 C
   C281       1.0     0.278169      0.431308      0.538899     Biso  1.000000 C
   C282       1.0     0.433714      0.281263      0.582516     Biso  1.000000 C
   C283       1.0     0.454282      0.171286      0.340125     Biso  1.000000 C
   C284       1.0     0.251801      0.276304      0.334776     Biso  1.000000 C
   C285       1.0     0.394495      0.010603      0.486065     Biso  1.000000 C
   C286       1.0     0.293706      0.010478      0.650246     Biso  1.000000 C
   C287       1.0     0.438852      0.312086      0.761265     Biso  1.000000 C
   C288       1.0     0.407450      0.168279      0.761703     Biso  1.000000 C
   C289       1.0     0.433853      0.225486      0.747686     Biso  1.000000 C
   C290       1.0     0.384478      0.198211      0.790809     Biso  1.000000 C
   C291       1.0     0.356294      0.141709      0.806445     Biso  1.000000 C
   C292       1.0     0.418711      0.337850      0.791687     Biso  1.000000 C
   C293       1.0     0.466018      0.376949      0.743077     Biso  1.000000 C
   C294       1.0     0.390919      0.283109      0.805705     Biso  1.000000 C
   C295       1.0     0.296652      0.372162      0.798298     Biso  1.000000 C
   C296       1.0     0.273211      0.249846      0.757644     Biso  1.000000 C
   C297       1.0     0.271526      0.295969      0.790425     Biso  1.000000 C
   C298       1.0     0.315562      0.061236      0.678419     Biso  1.000000 C
   C299       1.0     0.324332      0.415125      0.681821     Biso  1.000000 C
   C300       1.0     0.481464      0.475900      0.926297     Biso  1.000000 C
   C301       1.0     0.362487      0.429692      0.679709     Biso  1.000000 C
   C302       1.0     0.289099      0.023126      0.804169     Biso  1.000000 C
   C303       1.0     0.467171      0.197578      0.992107     Biso  1.000000 C
   C304       1.0     0.261216      0.026153      0.974166     Biso  1.000000 C
   C305       1.0     0.340990      0.207153      0.909591     Biso  1.000000 C
   C306       1.0     0.346890      0.307496      0.960971     Biso  1.000000 C
   C307       1.0     0.399343      0.021346      0.922456     Biso  1.000000 C
   C308       1.0     0.380529      0.169386      0.906875     Biso  1.000000 C
   C309       1.0     0.452704      0.447729      0.904845     Biso  1.000000 C
   C310       1.0     0.316431      0.475808      0.842601     Biso  1.000000 C
   C311       1.0     0.354090      0.651460      0.070521     Biso  1.000000 C
   C312       1.0     0.442434      0.566892      0.104921     Biso  1.000000 C
   C313       1.0     0.382689      0.619193      0.097624     Biso  1.000000 C
   C314       1.0     0.459788      0.905059      0.115154     Biso  1.000000 C
   C315       1.0     0.450988      0.830752      0.140309     Biso  1.000000 C
   C316       1.0     0.480439      0.570861      0.088873     Biso  1.000000 C
   C317       1.0     0.442840      0.911192      0.080753     Biso  1.000000 C
   C318       1.0     0.485629      0.581584      0.050798     Biso  1.000000 C
   C319       1.0     0.380863      0.703774      0.014477     Biso  1.000000 C
   C320       1.0     0.311111      0.935915      0.111258     Biso  1.000000 C
   C321       1.0     0.268122      0.529178      0.029373     Biso  1.000000 C
   C322       1.0     0.286846      0.773736      0.157426     Biso  1.000000 C
   C323       1.0     0.271542      0.869469      0.157207     Biso  1.000000 C
   C324       1.0     0.257579      0.636319      0.254427     Biso  1.000000 C
   C325       1.0     0.485112      0.904360      0.310032     Biso  1.000000 C
   C326       1.0     0.277903      0.704724      0.006686     Biso  1.000000 C
   C327       1.0     0.451917      0.977797      0.056476     Biso  1.000000 C
   C328       1.0     0.283700      0.608318      0.279747     Biso  1.000000 C
   C329       1.0     0.356505      0.692478      0.223236     Biso  1.000000 C
   C330       1.0     0.377808      0.760171      0.281228     Biso  1.000000 C
   C331       1.0     0.485005      0.967708      0.124398     Biso  1.000000 C
   C332       1.0     0.473012      0.737031      0.191031     Biso  1.000000 C
   C333       1.0     0.259226      0.598967      0.054199     Biso  1.000000 C
   C334       1.0     0.376928      0.914773      0.197039     Biso  1.000000 C
   C335       1.0     0.410969      0.710145      0.279143     Biso  1.000000 C
   C336       1.0     0.264803      0.684788      0.041937     Biso  1.000000 C
   C337       1.0     0.444219      0.723024      0.302653     Biso  1.000000 C
   C338       1.0     0.290351      0.668744      0.308167     Biso  1.000000 C
   C339       1.0     0.386155      0.632705      0.225513     Biso  1.000000 C
   C340       1.0     0.270638      0.747575      0.312117     Biso  1.000000 C
   C341       1.0     0.305603      0.522220      0.274727     Biso  1.000000 C
   C342       1.0     0.411293      0.642003      0.253275     Biso  1.000000 C
   C343       1.0     0.331910      0.694212      0.189687     Biso  1.000000 C
   C344       1.0     0.353739      0.758951      0.252260     Biso  1.000000 C
   C345       1.0     0.369048      0.691713      0.404646     Biso  1.000000 C
   C346       1.0     0.358365      0.740249      0.435452     Biso  1.000000 C
   C347       1.0     0.332680      0.703517      0.461732     Biso  1.000000 C
   C348       1.0     0.320114      0.619721      0.457782     Biso  1.000000 C
   C349       1.0     0.360278      0.600570      0.404399     Biso  1.000000 C
   C350       1.0     0.334758      0.566291      0.430514     Biso  1.000000 C
   C351       1.0     0.464146      0.652706      0.471882     Biso  1.000000 C
   C352       1.0     0.285297      0.950937      0.444971     Biso  1.000000 C
   C353       1.0     0.426188      0.976940      0.470181     Biso  1.000000 C
   C354       1.0     0.495049      0.987966      0.456684     Biso  1.000000 C
   C355       1.0     0.411446      0.893163      0.567758     Biso  1.000000 C
   C356       1.0     0.481677      0.589056      0.413122     Biso  1.000000 C
   C357       1.0     0.397187      0.741508      0.579142     Biso  1.000000 C
   C358       1.0     0.320449      0.755337      0.495392     Biso  1.000000 C
   C359       1.0     0.355660      0.515877      0.624186     Biso  1.000000 C
   C360       1.0     0.474766      0.673182      0.635378     Biso  1.000000 C
   C361       1.0     0.356905      0.857084      0.603283     Biso  1.000000 C
   C362       1.0     0.452503      0.779196      0.539558     Biso  1.000000 C
   C363       1.0     0.421027      0.803088      0.562600     Biso  1.000000 C
   C364       1.0     0.325914      0.883746      0.628136     Biso  1.000000 C
   C365       1.0     0.479702      0.651664      0.511467     Biso  1.000000 C
   C366       1.0     0.469019      0.574614      0.620318     Biso  1.000000 C
   C367       1.0     0.365919      0.767636      0.599716     Biso  1.000000 C
   C368       1.0     0.379054      0.919593      0.585671     Biso  1.000000 C
   C369       1.0     0.372641      0.540448      0.374470     Biso  1.000000 C
   C370       1.0     0.284736      0.739952      0.550613     Biso  1.000000 C
   C371       1.0     0.473121      0.833884      0.339631     Biso  1.000000 C
   C372       1.0     0.316151      0.503294      0.626682     Biso  1.000000 C
   C373       1.0     0.346156      0.687295      0.753776     Biso  1.000000 C
   C374       1.0     0.370671      0.619193      0.743763     Biso  1.000000 C
   C375       1.0     0.346625      0.767537      0.736987     Biso  1.000000 C
   C376       1.0     0.396581      0.639972      0.715343     Biso  1.000000 C
   C377       1.0     0.323406      0.674106      0.788093     Biso  1.000000 C
   C378       1.0     0.466297      0.868690      0.768123     Biso  1.000000 C
   C379       1.0     0.399028      0.724811      0.699707     Biso  1.000000 C
   C380       1.0     0.374839      0.791343      0.713340     Biso  1.000000 C
   C381       1.0     0.475410      0.606492      0.764447     Biso  1.000000 C
   C382       1.0     0.286533      0.638198      0.983356     Biso  1.000000 C
   C383       1.0     0.329479      0.994936      0.805677     Biso  1.000000 C
   C384       1.0     0.359248      0.855653      0.992656     Biso  1.000000 C
   C385       1.0     0.427709      0.743691      0.671918     Biso  1.000000 C
   C386       1.0     0.487616      0.529191      0.742611     Biso  1.000000 C
   C387       1.0     0.263466      0.910289      0.767108     Biso  1.000000 C
   C388       1.0     0.303545      0.566648      0.830805     Biso  1.000000 C
   C389       1.0     0.267618      0.927012      0.921003     Biso  1.000000 C
   C390       1.0     0.411328      0.788112      0.960176     Biso  1.000000 C
   C391       1.0     0.278931      0.551335      0.994384     Biso  1.000000 C
   C392       1.0     0.430759      0.885849      0.826444     Biso  1.000000 C
   C393       1.0     0.412090      0.794291      0.826910     Biso  1.000000 C
   C394       1.0     0.363543      0.928694      0.969009     Biso  1.000000 C
   C395       1.0     0.286128      0.806576      0.884710     Biso  1.000000 C
   C396       1.0     0.392212      0.939733      0.943634     Biso  1.000000 C
   C397       1.0     0.418163      0.653887      0.856619     Biso  1.000000 C
   C398       1.0     0.489521      0.566622      0.928135     Biso  1.000000 C
   C399       1.0     0.319638      0.779763      0.906107     Biso  1.000000 C
   C400       1.0     0.440313      0.594417      0.882460     Biso  1.000000 C
   C401       1.0     0.414746      0.862142      0.938971     Biso  1.000000 C
   C402       1.0     0.299982      0.661668      0.946295     Biso  1.000000 C
   C403       1.0     0.469084      0.624613      0.905970     Biso  1.000000 C
   C404       1.0     0.383401      0.782052      0.988211     Biso  1.000000 C
   C405       1.0     0.429285      0.505787      0.884655     Biso  1.000000 C
   C406       1.0     0.696110      0.324180      0.099929     Biso  1.000000 C
   C407       1.0     0.642194      0.238952      0.103028     Biso  1.000000 C
   C408       1.0     0.612998      0.294214      0.080123     Biso  1.000000 C
   C409       1.0     0.574996      0.348342      0.129775     Biso  1.000000 C
   C410       1.0     0.538343      0.351567      0.146563     Biso  1.000000 C
   C411       1.0     0.735115      0.323857      0.091425     Biso  1.000000 C
   C412       1.0     0.748130      0.441035      0.231823     Biso  1.000000 C
   C413       1.0     0.740136      0.175895      0.216488     Biso  1.000000 C
   C414       1.0     0.709399      0.238899      0.999938     Biso  1.000000 C
   C415       1.0     0.507020      0.307898      0.131777     Biso  1.000000 C
   C416       1.0     0.623292      0.131804      0.225568     Biso  1.000000 C
   C417       1.0     0.532670      0.399595      0.179564     Biso  1.000000 C
   C418       1.0     0.519032      0.032134      0.231905     Biso  1.000000 C
   C419       1.0     0.678154      0.438931      0.216900     Biso  1.000000 C
   C420       1.0     0.690637      0.009153      0.045750     Biso  1.000000 C
   C421       1.0     0.708955      0.458610      0.241781     Biso  1.000000 C
   C422       1.0     0.700070      0.196872      0.216077     Biso  1.000000 C
   C423       1.0     0.524747      0.121814      0.241397     Biso  1.000000 C
   C424       1.0     0.641023      0.458484      0.225513     Biso  1.000000 C
   C425       1.0     0.562729      0.162957      0.240628     Biso  1.000000 C
   C426       1.0     0.645995      0.191531      0.253439     Biso  1.000000 C
   C427       1.0     0.666766      0.258657      0.458769     Biso  1.000000 C
   C428       1.0     0.702786      0.289572      0.461074     Biso  1.000000 C
   C429       1.0     0.550399      0.398276      0.406840     Biso  1.000000 C
   C430       1.0     0.637154      0.313292      0.471635     Biso  1.000000 C
   C431       1.0     0.708580      0.374879      0.477698     Biso  1.000000 C
   C432       1.0     0.547831      0.372933      0.369231     Biso  1.000000 C
   C433       1.0     0.642336      0.393198      0.489247     Biso  1.000000 C
   C434       1.0     0.630540      0.042758      0.373345     Biso  1.000000 C
   C435       1.0     0.679373      0.424773      0.493554     Biso  1.000000 C
   C436       1.0     0.532982      0.473460      0.420940     Biso  1.000000 C
   C437       1.0     0.672919      0.443884      0.382096     Biso  1.000000 C
   C438       1.0     0.574437      0.306295      0.356063     Biso  1.000000 C
   C439       1.0     0.636734      0.256725      0.363635     Biso  1.000000 C
   C440       1.0     0.592070      0.032524      0.373620     Biso  1.000000 C
   C441       1.0     0.652101      0.028963      0.341579     Biso  1.000000 C
   C442       1.0     0.656176      0.328163      0.340262     Biso  1.000000 C
   C443       1.0     0.743060      0.119749      0.372550     Biso  1.000000 C
   C444       1.0     0.693808      0.048344      0.339741     Biso  1.000000 C
   C445       1.0     0.524078      0.419332      0.345502     Biso  1.000000 C
   C446       1.0     0.612463      0.443310      0.508696     Biso  1.000000 C
   C447       1.0     0.646387      0.016796      0.520876     Biso  1.000000 C
   C448       1.0     0.682212      0.036599      0.507187     Biso  1.000000 C
   C449       1.0     0.733544      0.242836      0.444615     Biso  1.000000 C
   C450       1.0     0.551988      0.329851      0.585424     Biso  1.000000 C
   C451       1.0     0.671231      0.361558      0.585369     Biso  1.000000 C
   C452       1.0     0.731009      0.302378      0.572119     Biso  1.000000 C
   C453       1.0     0.676646      0.204509      0.575192     Biso  1.000000 C
   C454       1.0     0.708528      0.371700      0.582078     Biso  1.000000 C
   C455       1.0     0.654000      0.278328      0.582626     Biso  1.000000 C
   C456       1.0     0.613521      0.264506      0.587015     Biso  1.000000 C
   C457       1.0     0.532346      0.285800      0.553164     Biso  1.000000 C
   C458       1.0     0.714730      0.218094      0.568443     Biso  1.000000 C
   C459       1.0     0.516210      0.057978      0.632882     Biso  1.000000 C
   C460       1.0     0.522206      0.046089      0.567758     Biso  1.000000 C
   C461       1.0     0.523217      0.111374      0.665471     Biso  1.000000 C
   C462       1.0     0.634468      0.009931      0.643087     Biso  1.000000 C
   C463       1.0     0.503762      0.489426      0.360919     Biso  1.000000 C
   C464       1.0     0.741448      0.172387      0.665252     Biso  1.000000 C
   C465       1.0     0.693191      0.216471      0.703410     Biso  1.000000 C
   C466       1.0     0.690889      0.143978      0.732077     Biso  1.000000 C
   C467       1.0     0.565807      0.206777      0.699487     Biso  1.000000 C
   C468       1.0     0.555105      0.246628      0.765407     Biso  1.000000 C
   C469       1.0     0.545378      0.192500      0.732214     Biso  1.000000 C
   C470       1.0     0.684388      0.440065      0.743379     Biso  1.000000 C
   C471       1.0     0.663181      0.109073      0.791660     Biso  1.000000 C
   C472       1.0     0.645203      0.444939      0.743242     Biso  1.000000 C
   C473       1.0     0.702063      0.441694      0.777505     Biso  1.000000 C
   C474       1.0     0.625196      0.441721      0.707223     Biso  1.000000 C
   C475       1.0     0.535451      0.304812      0.820408     Biso  1.000000 C
   C476       1.0     0.682530      0.464973      0.809298     Biso  1.000000 C
   C477       1.0     0.564886      0.473981      0.681409     Biso  1.000000 C
   C478       1.0     0.625418      0.466622      0.775968     Biso  1.000000 C
   C479       1.0     0.645107      0.479237      0.807817     Biso  1.000000 C
   C480       1.0     0.554217      0.375004      0.983822     Biso  1.000000 C
   C481       1.0     0.513288      0.137126      0.732406     Biso  1.000000 C
   C482       1.0     0.743115      0.235497      0.828007     Biso  1.000000 C
   C483       1.0     0.619175      0.113491      0.887233     Biso  1.000000 C
   C484       1.0     0.725731      0.222644      0.862819     Biso  1.000000 C
   C485       1.0     0.623308      0.266484      0.866056     Biso  1.000000 C
   C486       1.0     0.502471      0.289453      0.844988     Biso  1.000000 C
   C487       1.0     0.503663      0.139718      0.857881     Biso  1.000000 C
   C488       1.0     0.511676      0.066564      0.885862     Biso  1.000000 C
   C489       1.0     0.727329      0.472405      0.980174     Biso  1.000000 C
   C490       1.0     0.506012      0.405834      0.942427     Biso  1.000000 C
   C491       1.0     0.712658      0.129687      0.920015     Biso  1.000000 C
   C492       1.0     0.590470      0.372880      0.964620     Biso  1.000000 C
   C493       1.0     0.523812      0.009179      0.948654     Biso  1.000000 C
   C494       1.0     0.595789      0.241003      0.928711     Biso  1.000000 C
   C495       1.0     0.681933      0.214328      0.969146     Biso  1.000000 C
   C496       1.0     0.518435      0.081244      0.923993     Biso  1.000000 C
   C497       1.0     0.644740      0.144281      0.826690     Biso  1.000000 C
   C498       1.0     0.639017      0.235629      0.832918     Biso  1.000000 C
   C499       1.0     0.611781      0.205907      0.893049     Biso  1.000000 C
   C500       1.0     0.638398      0.085761      0.855138     Biso  1.000000 C
   C501       1.0     0.501692      0.100111      0.698719     Biso  1.000000 C
   C502       1.0     0.730587      0.141907      0.882625     Biso  1.000000 C
   C503       1.0     0.703578      0.478881      0.843369     Biso  1.000000 C
   C504       1.0     0.705743      0.395038      0.990543     Biso  1.000000 C
   C505       1.0     0.555313      0.162304      0.666925     Biso  1.000000 C
   C506       1.0     0.550012      0.570835      0.056476     Biso  1.000000 C
   C507       1.0     0.665505      0.660435      0.055187     Biso  1.000000 C
   C508       1.0     0.587030      0.568494      0.038755     Biso  1.000000 C
   C509       1.0     0.537058      0.840809      0.056832     Biso  1.000000 C
   C510       1.0     0.650766      0.562394      0.056394     Biso  1.000000 C
   C511       1.0     0.517676      0.800595      0.024874     Biso  1.000000 C
   C512       1.0     0.546351      0.560040      0.095594     Biso  1.000000 C
   C513       1.0     0.708977      0.635600      0.153504     Biso  1.000000 C
   C514       1.0     0.647042      0.869732      0.022350     Biso  1.000000 C
   C515       1.0     0.641780      0.608767      0.162008     Biso  1.000000 C
   C516       1.0     0.722911      0.727791      0.062429     Biso  1.000000 C
   C517       1.0     0.519794      0.583879      0.034228     Biso  1.000000 C
   C518       1.0     0.671096      0.669681      0.161761     Biso  1.000000 C
   C519       1.0     0.675734      0.784940      0.318920     Biso  1.000000 C
   C520       1.0     0.631935      0.930850      0.048383     Biso  1.000000 C
   C521       1.0     0.595285      0.910691      0.066845     Biso  1.000000 C
   C522       1.0     0.745677      0.866310      0.221508     Biso  1.000000 C
   C523       1.0     0.664645      0.758925      0.164669     Biso  1.000000 C
   C524       1.0     0.599610      0.732948      0.175450     Biso  1.000000 C
   C525       1.0     0.606182      0.641647      0.169305     Biso  1.000000 C
   C526       1.0     0.629724      0.791449      0.174270     Biso  1.000000 C
   C527       1.0     0.559679      0.633009      0.308660     Biso  1.000000 C
   C528       1.0     0.712554      0.797548      0.329344     Biso  1.000000 C
   C529       1.0     0.596535      0.982268      0.308660     Biso  1.000000 C
   C530       1.0     0.632758      0.502747      0.258322     Biso  1.000000 C
   C531       1.0     0.738297      0.973787      0.173913     Biso  1.000000 C
   C532       1.0     0.663538      0.525016      0.280048     Biso  1.000000 C
   C533       1.0     0.504348      0.720050      0.217146     Biso  1.000000 C
   C534       1.0     0.596828      0.547273      0.265811     Biso  1.000000 C
   C535       1.0     0.564261      0.722661      0.291488     Biso  1.000000 C
   C536       1.0     0.562718      0.769153      0.191196     Biso  1.000000 C
   C537       1.0     0.655382      0.999612      0.060070     Biso  1.000000 C
   C538       1.0     0.704447      0.949823      0.019223     Biso  1.000000 C
   C539       1.0     0.743605      0.912933      0.138004     Biso  1.000000 C
   C540       1.0     0.635235      0.996796      0.310553     Biso  1.000000 C
   C541       1.0     0.511545      0.566865      0.112109     Biso  1.000000 C
   C542       1.0     0.680105      0.882611      0.006302     Biso  1.000000 C
   C543       1.0     0.700588      0.501125      0.274919     Biso  1.000000 C
   C544       1.0     0.741703      0.960533      0.002160     Biso  1.000000 C
   C545       1.0     0.656212      0.830422      0.380560     Biso  1.000000 C
   C546       1.0     0.692934      0.844060      0.391039     Biso  1.000000 C
   C547       1.0     0.608223      0.748380      0.456108     Biso  1.000000 C
   C548       1.0     0.625517      0.669008      0.437948     Biso  1.000000 C
   C549       1.0     0.721288      0.830165      0.364430     Biso  1.000000 C
   C550       1.0     0.662362      0.642511      0.443270     Biso  1.000000 C
   C551       1.0     0.605768      0.617294      0.413369     Biso  1.000000 C
   C552       1.0     0.551720      0.825503      0.461129     Biso  1.000000 C
   C553       1.0     0.522631      0.850595      0.432078     Biso  1.000000 C
   C554       1.0     0.620395      0.543145      0.397404     Biso  1.000000 C
   C555       1.0     0.678628      0.568870      0.427167     Biso  1.000000 C
   C556       1.0     0.647716      0.800081      0.345008     Biso  1.000000 C
   C557       1.0     0.535534      0.977177      0.341360     Biso  1.000000 C
   C558       1.0     0.658566      0.522590      0.401354     Biso  1.000000 C
   C559       1.0     0.540031      0.959154      0.557333     Biso  1.000000 C
   C560       1.0     0.607141      0.785612      0.335846     Biso  1.000000 C
   C561       1.0     0.704858      0.896143      0.527816     Biso  1.000000 C
   C562       1.0     0.621762      0.641799      0.567566     Biso  1.000000 C
   C563       1.0     0.578567      0.550544      0.657132     Biso  1.000000 C
   C564       1.0     0.711318      0.978509      0.511439     Biso  1.000000 C
   C565       1.0     0.602501      0.564643      0.551683     Biso  1.000000 C
   C566       1.0     0.703167      0.589873      0.643663     Biso  1.000000 C
   C567       1.0     0.664031      0.946981      0.626847     Biso  1.000000 C
   C568       1.0     0.601054      0.914601      0.551655     Biso  1.000000 C
   C569       1.0     0.713798      0.611701      0.608220     Biso  1.000000 C
   C570       1.0     0.684717      0.627970      0.579553     Biso  1.000000 C
   C571       1.0     0.638529      0.934840      0.539064     Biso  1.000000 C
   C572       1.0     0.669071      0.878503      0.541532     Biso  1.000000 C
   C573       1.0     0.707755      0.859741      0.657543     Biso  1.000000 C
   C574       1.0     0.506001      0.517110      0.397376     Biso  1.000000 C
   C575       1.0     0.750150      0.995978      0.497092     Biso  1.000000 C
   C576       1.0     0.575265      0.999189      0.341853     Biso  1.000000 C
   C577       1.0     0.597510      0.731557      0.764721     Biso  1.000000 C
   C578       1.0     0.608687      0.691410      0.730952     Biso  1.000000 C
   C579       1.0     0.647135      0.680997      0.725191     Biso  1.000000 C
   C580       1.0     0.673182      0.708938      0.751087     Biso  1.000000 C
   C581       1.0     0.622716      0.765513      0.789026     Biso  1.000000 C
   C582       1.0     0.660671      0.748248      0.783759     Biso  1.000000 C
   C583       1.0     0.570159      0.926577      0.714548     Biso  1.000000 C
   C584       1.0     0.579781      0.663679      0.704343     Biso  1.000000 C
   C585       1.0     0.729930      0.846697      0.691614     Biso  1.000000 C
   C586       1.0     0.606735      0.948300      0.698143     Biso  1.000000 C
   C587       1.0     0.564031      0.940149      0.752294     Biso  1.000000 C
   C588       1.0     0.724295      0.903087      0.721927     Biso  1.000000 C
   C589       1.0     0.531294      0.913705      0.770125     Biso  1.000000 C
   C590       1.0     0.689700      0.778385      0.811191     Biso  1.000000 C
   C591       1.0     0.541782      0.888784      0.695619     Biso  1.000000 C
   C592       1.0     0.503912      0.874236      0.750100     Biso  1.000000 C
   C593       1.0     0.510369      0.581697      0.822137     Biso  1.000000 C
   C594       1.0     0.728609      0.566410      0.670162     Biso  1.000000 C
   C595       1.0     0.504559      0.906814      0.899797     Biso  1.000000 C
   C596       1.0     0.508876      0.862993      0.710899     Biso  1.000000 C
   C597       1.0     0.506464      0.979136      0.873545     Biso  1.000000 C
   C598       1.0     0.629326      0.762466      0.898700     Biso  1.000000 C
   C599       1.0     0.567106      0.580813      0.862819     Biso  1.000000 C
   C600       1.0     0.571192      0.763171      0.862572     Biso  1.000000 C
   C601       1.0     0.698815      0.866982      0.867126     Biso  1.000000 C
   C602       1.0     0.538992      0.625616      0.845262     Biso  1.000000 C
   C603       1.0     0.712400      0.549640      0.966869     Biso  1.000000 C
   C604       1.0     0.515028      0.923583      0.935459     Biso  1.000000 C
   C605       1.0     0.734386      0.621699      0.958722     Biso  1.000000 C
   C606       1.0     0.695710      0.789517      0.897356     Biso  1.000000 C
   C607       1.0     0.541645      0.720551      0.845728     Biso  1.000000 C
   C608       1.0     0.515941      0.844944      0.962096     Biso  1.000000 C
   C609       1.0     0.600440      0.714596      0.877934     Biso  1.000000 C
   C610       1.0     0.598415      0.623902      0.879031     Biso  1.000000 C
   C611       1.0     0.749892      0.900067      0.751197     Biso  1.000000 C
   C612       1.0     0.812225      0.326699      0.089367     Biso  1.000000 C
   C613       1.0     0.854680      0.326125      0.085225     Biso  1.000000 C
   C614       1.0     0.793496      0.245065      0.089943     Biso  1.000000 C
   C615       1.0     0.793016      0.408854      0.093756     Biso  1.000000 C
   C616       1.0     0.932967      0.385885      0.051538     Biso  1.000000 C
   C617       1.0     0.906536      0.426527      0.079053     Biso  1.000000 C
   C618       1.0     0.927836      0.216438      0.157262     Biso  1.000000 C
   C619       1.0     0.868504      0.008177      0.103111     Biso  1.000000 C
   C620       1.0     0.754590      0.407060      0.092851     Biso  1.000000 C
   C621       1.0     0.965857      0.037093      0.013709     Biso  1.000000 C
   C622       1.0     0.984055      0.311156      0.153202     Biso  1.000000 C
   C623       1.0     0.809545      0.454791      0.259639     Biso  1.000000 C
   C624       1.0     0.845494      0.175361      0.006028     Biso  1.000000 C
   C625       1.0     0.857147      0.116202      0.215418     Biso  1.000000 C
   C626       1.0     0.754573      0.244881      0.092878     Biso  1.000000 C
   C627       1.0     0.971442      0.309026      0.287153     Biso  1.000000 C
   C628       1.0     0.992016      0.431123      0.249681     Biso  1.000000 C
   C629       1.0     0.826625      0.372261      0.240519     Biso  1.000000 C
   C630       1.0     0.817654      0.146095      0.216790     Biso  1.000000 C
   C631       1.0     0.956158      0.445203      0.238653     Biso  1.000000 C
   C632       1.0     0.914193      0.150177      0.186751     Biso  1.000000 C
   C633       1.0     0.756352      0.131600      0.247157     Biso  1.000000 C
   C634       1.0     0.927452      0.396786      0.251464     Biso  1.000000 C
   C635       1.0     0.763140      0.203592      0.187547     Biso  1.000000 C
   C636       1.0     0.794940      0.115100      0.245511     Biso  1.000000 C
   C637       1.0     0.890958      0.417499      0.235992     Biso  1.000000 C
   C638       1.0     0.935891      0.324305      0.275714     Biso  1.000000 C
   C639       1.0     0.801329      0.194643      0.189220     Biso  1.000000 C
   C640       1.0     0.999526      0.362099      0.273986     Biso  1.000000 C
   C641       1.0     0.826403      0.372610      0.402616     Biso  1.000000 C
   C642       1.0     0.816169      0.337725      0.368380     Biso  1.000000 C
   C643       1.0     0.941775      0.216775      0.376884     Biso  1.000000 C
   C644       1.0     0.860666      0.120033      0.380451     Biso  1.000000 C
   C645       1.0     0.773632      0.459269      0.359108     Biso  1.000000 C
   C646       1.0     0.810033      0.449832      0.416085     Biso  1.000000 C
   C647       1.0     0.827811      0.247987      0.356420     Biso  1.000000 C
   C648       1.0     0.897577      0.112416      0.360041     Biso  1.000000 C
   C649       1.0     0.946952      0.331994      0.642867     Biso  1.000000 C
   C650       1.0     0.788250      0.380497      0.347888     Biso  1.000000 C
   C651       1.0     0.938001      0.372300      0.491825     Biso  1.000000 C
   C652       1.0     0.972857      0.411070      0.489905     Biso  1.000000 C
   C653       1.0     0.980295      0.226686      0.391012     Biso  1.000000 C
   C654       1.0     0.932687      0.283168      0.499122     Biso  1.000000 C
   C655       1.0     0.894381      0.238220      0.497394     Biso  1.000000 C
   C656       1.0     0.965566      0.233432      0.509025     Biso  1.000000 C
   C657       1.0     0.876200      0.487414      0.559226     Biso  1.000000 C
   C658       1.0     0.771058      0.316167      0.570254     Biso  1.000000 C
   C659       1.0     0.800515      0.135009      0.634226     Biso  1.000000 C
   C660       1.0     0.941452      0.471884      0.578484     Biso  1.000000 C
   C661       1.0     0.998545      0.157430      0.410516     Biso  1.000000 C
   C662       1.0     0.856325      0.225499      0.640453     Biso  1.000000 C
   C663       1.0     0.830113      0.275769      0.501180     Biso  1.000000 C
   C664       1.0     0.896171      0.236222      0.632827     Biso  1.000000 C
   C665       1.0     0.825906      0.256902      0.542246     Biso  1.000000 C
   C666       1.0     0.961184      0.333960      0.602596     Biso  1.000000 C
   C667       1.0     0.837371      0.153883      0.625612     Biso  1.000000 C
   C668       1.0     0.785427      0.498289      0.392054     Biso  1.000000 C
   C669       1.0     0.779242      0.195982      0.654635     Biso  1.000000 C
   C670       1.0     0.836176      0.285714      0.662344     Biso  1.000000 C
   C671       1.0     0.752778      0.108585      0.412930     Biso  1.000000 C
   C672       1.0     0.783676      0.182820      0.778190     Biso  1.000000 C
   C673       1.0     0.894063      0.294946      0.779397     Biso  1.000000 C
   C674       1.0     0.874457      0.283894      0.815224     Biso  1.000000 C
   C675       1.0     0.823443      0.113287      0.731857     Biso  1.000000 C
   C676       1.0     0.764102      0.165964      0.813660     Biso  1.000000 C
   C677       1.0     0.876131      0.025540      0.918753     Biso  1.000000 C
   C678       1.0     0.839199      0.317770      0.819997     Biso  1.000000 C
   C679       1.0     0.798399      0.273019      0.668626     Biso  1.000000 C
   C680       1.0     0.751520      0.073720      0.866988     Biso  1.000000 C
   C681       1.0     0.870469      0.029233      0.986538     Biso  1.000000 C
   C682       1.0     0.952458      0.243601      0.750731     Biso  1.000000 C
   C683       1.0     0.768148      0.087944      0.832643     Biso  1.000000 C
   C684       1.0     0.989196      0.283887      0.758686     Biso  1.000000 C
   C685       1.0     0.954272      0.414472      0.917930     Biso  1.000000 C
   C686       1.0     0.878264      0.252379      0.881253     Biso  1.000000 C
   C687       1.0     0.945025      0.454184      0.884792     Biso  1.000000 C
   C688       1.0     0.827734      0.291128      0.922648     Biso  1.000000 C
   C689       1.0     0.827455      0.248917      0.986072     Biso  1.000000 C
   C690       1.0     0.932462      0.429092      0.949560     Biso  1.000000 C
   C691       1.0     0.898966      0.479184      0.946899     Biso  1.000000 C
   C692       1.0     0.894326      0.248204      0.845015     Biso  1.000000 C
   C693       1.0     0.844970      0.289631      0.885505     Biso  1.000000 C
   C694       1.0     0.823506      0.317889      0.855412     Biso  1.000000 C
   C695       1.0     0.942685      0.387600      0.986675     Biso  1.000000 C
   C696       1.0     0.766660      0.467598      0.981600     Biso  1.000000 C
   C697       1.0     0.957358      0.129615      0.998170     Biso  1.000000 C
   C698       1.0     0.840942      0.705799      0.040620     Biso  1.000000 C
   C699       1.0     0.824366      0.789615      0.048685     Biso  1.000000 C
   C700       1.0     0.785869      0.802270      0.056009     Biso  1.000000 C
   C701       1.0     0.780442      0.642116      0.045201     Biso  1.000000 C
   C702       1.0     0.880774      0.695815      0.031704     Biso  1.000000 C
   C703       1.0     0.818268      0.634136      0.038343     Biso  1.000000 C
   C704       1.0     0.924279      0.614095      0.147331     Biso  1.000000 C
   C705       1.0     0.937598      0.764510      0.046628     Biso  1.000000 C
   C706       1.0     0.960885      0.619773      0.157536     Biso  1.000000 C
   C707       1.0     0.855908      0.626625      0.156165     Biso  1.000000 C
   C708       1.0     0.918688      0.934847      0.133862     Biso  1.000000 C
   C709       1.0     0.763327      0.725068      0.055022     Biso  1.000000 C
   C710       1.0     0.771886      0.678326      0.154244     Biso  1.000000 C
   C711       1.0     0.958167      0.921473      0.140281     Biso  1.000000 C
   C712       1.0     0.857314      0.895122      0.149883     Biso  1.000000 C
   C713       1.0     0.844219      0.956365      0.123548     Biso  1.000000 C
   C714       1.0     0.894009      0.643269      0.168591     Biso  1.000000 C
   C715       1.0     0.834926      0.719113      0.271874     Biso  1.000000 C
   C716       1.0     0.894598      0.884432      0.155534     Biso  1.000000 C
   C717       1.0     0.803302      0.974084      0.120036     Biso  1.000000 C
   C718       1.0     0.775345      0.818077      0.241918     Biso  1.000000 C
   C719       1.0     0.811296      0.854941      0.245264     Biso  1.000000 C
   C720       1.0     0.769452      0.730733      0.254948     Biso  1.000000 C
   C721       1.0     0.798884      0.682560      0.269268     Biso  1.000000 C
   C722       1.0     0.928784      0.678240      0.310334     Biso  1.000000 C
   C723       1.0     0.939602      0.694760      0.213745     Biso  1.000000 C
   C724       1.0     0.840514      0.804348      0.260050     Biso  1.000000 C
   C725       1.0     0.970193      0.661945      0.191991     Biso  1.000000 C
   C726       1.0     0.865350      0.671837      0.291982     Biso  1.000000 C
   C727       1.0     0.902376      0.685151      0.202525     Biso  1.000000 C
   C728       1.0     0.792605      0.603782      0.177123     Biso  1.000000 C
   C729       1.0     0.906237      0.991810      0.107527     Biso  1.000000 C
   C730       1.0     0.994946      0.995503      0.204884     Biso  1.000000 C
   C731       1.0     0.995283      0.896935      0.192677     Biso  1.000000 C
   C732       1.0     0.935800      0.883726      0.408815     Biso  1.000000 C
   C733       1.0     0.844746      0.798102      0.372907     Biso  1.000000 C
   C734       1.0     0.893710      0.877343      0.405770     Biso  1.000000 C
   C735       1.0     0.959036      0.871131      0.377076     Biso  1.000000 C
   C736       1.0     0.772215      0.588502      0.403987     Biso  1.000000 C
   C737       1.0     0.821697      0.876017      0.356557     Biso  1.000000 C
   C738       1.0     0.951268      0.909306      0.442310     Biso  1.000000 C
   C739       1.0     0.805727      0.935803      0.477643     Biso  1.000000 C
   C740       1.0     0.926586      0.624185      0.345694     Biso  1.000000 C
   C741       1.0     0.989435      0.908020      0.446507     Biso  1.000000 C
   C742       1.0     0.768781      0.688198      0.453887     Biso  1.000000 C
   C743       1.0     0.765747      0.678959      0.495693     Biso  1.000000 C
   C744       1.0     0.996204      0.865762      0.383194     Biso  1.000000 C
   C745       1.0     0.987911      0.576698      0.357627     Biso  1.000000 C
   C746       1.0     0.929867      0.909662      0.656090     Biso  1.000000 C
   C747       1.0     0.860074      0.757342      0.653182     Biso  1.000000 C
   C748       1.0     0.912590      0.518982      0.557059     Biso  1.000000 C
   C749       1.0     0.954226      0.835665      0.659272     Biso  1.000000 C
   C750       1.0     0.759553      0.862234      0.375019     Biso  1.000000 C
   C751       1.0     0.834986      0.976762      0.503237     Biso  1.000000 C
   C752       1.0     0.751712      0.600418      0.599387     Biso  1.000000 C
   C753       1.0     0.818507      0.874559      0.631839     Biso  1.000000 C
   C754       1.0     0.895376      0.644799      0.522303     Biso  1.000000 C
   C755       1.0     0.833254      0.824804      0.661274     Biso  1.000000 C
   C756       1.0     0.922399      0.594747      0.538131     Biso  1.000000 C
   C757       1.0     0.859353      0.616272      0.523592     Biso  1.000000 C
   C758       1.0     0.831095      0.671237      0.505596     Biso  1.000000 C
   C759       1.0     0.970193      0.799151      0.627944     Biso  1.000000 C
   C760       1.0     0.822462      0.931616      0.566386     Biso  1.000000 C
   C761       1.0     0.923643      0.949691      0.621196     Biso  1.000000 C
   C762       1.0     0.832067      0.865439      0.595409     Biso  1.000000 C
   C763       1.0     0.942446      0.916461      0.590965     Biso  1.000000 C
   C764       1.0     0.986121      0.811258      0.558266     Biso  1.000000 C
   C765       1.0     0.870683      0.740308      0.615819     Biso  1.000000 C
   C766       1.0     0.966909      0.843387      0.592474     Biso  1.000000 C
   C767       1.0     0.776441      0.576071      0.625777     Biso  1.000000 C
   C768       1.0     0.849153      0.537256      0.541917     Biso  1.000000 C
   C769       1.0     0.857147      0.798043      0.588250     Biso  1.000000 C
   C770       1.0     0.765451      0.559169      0.662454     Biso  1.000000 C
   C771       1.0     0.795880      0.814101      0.789904     Biso  1.000000 C
   C772       1.0     0.916208      0.862261      0.784170     Biso  1.000000 C
   C773       1.0     0.900945      0.925073      0.755504     Biso  1.000000 C
   C774       1.0     0.979922      0.657454      0.749853     Biso  1.000000 C
   C775       1.0     0.910082      0.945609      0.688295     Biso  1.000000 C
   C776       1.0     0.773788      0.829044      0.755860     Biso  1.000000 C
   C777       1.0     0.776545      0.763204      0.726673     Biso  1.000000 C
   C778       1.0     0.791216      0.528030      0.691751     Biso  1.000000 C
   C779       1.0     0.875468      0.704783      0.684400     Biso  1.000000 C
   C780       1.0     0.834298      0.720946      0.826115     Biso  1.000000 C
   C781       1.0     0.859742      0.641733      0.816431     Biso  1.000000 C
   C782       1.0     0.892600      0.551751      0.697896     Biso  1.000000 C
   C783       1.0     0.792975      0.694014      0.944347     Biso  1.000000 C
   C784       1.0     0.753896      0.773366      0.695948     Biso  1.000000 C
   C785       1.0     0.788804      0.536563      0.971176     Biso  1.000000 C
   C786       1.0     0.994771      0.963427      0.911758     Biso  1.000000 C
   C787       1.0     0.887099      0.984266      0.885231     Biso  1.000000 C
   C788       1.0     0.763121      0.508253      0.868717     Biso  1.000000 C
   C789       1.0     0.787738      0.843743      0.922786     Biso  1.000000 C
   C790       1.0     0.901129      0.897179      0.883914     Biso  1.000000 C
   C791       1.0     0.879963      0.979063      0.952111     Biso  1.000000 C
   C792       1.0     0.903845      0.853352      0.917738     Biso  1.000000 C
   C793       1.0     0.784150      0.902573      0.956033     Biso  1.000000 C
   C794       1.0     0.904779      0.545796      0.844055     Biso  1.000000 C
   C795       1.0     0.853428      0.524192      0.710597     Biso  1.000000 C
   C796       1.0     0.917989      0.857111      0.850447     Biso  1.000000 C
   C797       1.0     0.773018      0.615843      0.957624     Biso  1.000000 C
   C798       1.0     0.890224      0.521033      0.913020     Biso  1.000000 C
   C799       1.0     0.892811      0.892391      0.951151     Biso  1.000000 C
   C800       1.0     0.912659      0.502812      0.880677     Biso  1.000000 C
   H1         1.0     0.189227      0.243219      0.134630     Biso  1.000000 H
   H2         1.0     0.083762      0.069967      0.119762     Biso  1.000000 H
   H3         1.0     0.034239      0.048416      0.073840     Biso  1.000000 H
   H4         1.0     0.002094      0.041578      0.182719     Biso  1.000000 H
   H5         1.0     0.179092      0.088069      0.109118     Biso  1.000000 H
   H6         1.0     0.236322      0.279475      0.020649     Biso  1.000000 H
   H7         1.0     0.218029      0.084535      0.140144     Biso  1.000000 H
   H8         1.0     0.132981      0.400287      0.024737     Biso  1.000000 H
   H9         1.0     0.178879      0.448975      0.110792     Biso  1.000000 H
   H10        1.0     0.020404      0.166452      0.158469     Biso  1.000000 H
   H11        1.0     0.099589      0.378209      0.318124     Biso  1.000000 H
   H12        1.0     0.173792      0.414400      0.154848     Biso  1.000000 H
   H13        1.0     0.240696      0.492143      0.156384     Biso  1.000000 H
   H14        1.0     0.235522      0.156969      0.305698     Biso  1.000000 H
   H15        1.0     0.236665      0.391312      0.135947     Biso  1.000000 H
   H16        1.0     0.035845      0.434895      0.164065     Biso  1.000000 H
   H17        1.0     0.202719      0.255742      0.223730     Biso  1.000000 H
   H18        1.0     0.164567      0.124379      0.016699     Biso  1.000000 H
   H19        1.0     0.083381      0.130010      0.175943     Biso  1.000000 H
   H20        1.0     0.223661      0.430543      0.249242     Biso  1.000000 H
   H21        1.0     0.102864      0.408155      0.186806     Biso  1.000000 H
   H22        1.0     0.198611      0.074940      0.216954     Biso  1.000000 H
   H23        1.0     0.209552      0.345513      0.194817     Biso  1.000000 H
   H24        1.0     0.113515      0.348454      0.276482     Biso  1.000000 H
   H25        1.0     0.012344      0.472135      0.238790     Biso  1.000000 H
   H26        1.0     0.237627      0.233492      0.120640     Biso  1.000000 H
   H27        1.0     0.111363      0.465355      0.081330     Biso  1.000000 H
   H28        1.0     0.183847      0.410370      0.263809     Biso  1.000000 H
   H29        1.0     0.075713      0.100124      0.237885     Biso  1.000000 H
   H30        1.0     0.124178      0.187858      0.271188     Biso  1.000000 H
   H31        1.0     0.066817      0.480952      0.101547     Biso  1.000000 H
   H32        1.0     0.177854      0.001312      0.274452     Biso  1.000000 H
   H33        1.0     0.129564      0.504890      0.261230     Biso  1.000000 H
   H34        1.0     0.159508      0.204707      0.463515     Biso  1.000000 H
   H35        1.0     0.054218      0.366734      0.388323     Biso  1.000000 H
   H36        1.0     0.045851      0.113161      0.436988     Biso  1.000000 H
   H37        1.0     0.165776      0.394181      0.370657     Biso  1.000000 H
   H38        1.0     0.196578      0.376026      0.432105     Biso  1.000000 H
   H39        1.0     0.172964      0.252372      0.395346     Biso  1.000000 H
   H40        1.0     0.160440      0.098212      0.449635     Biso  1.000000 H
   H41        1.0     0.199987      0.151396      0.405606     Biso  1.000000 H
   H42        1.0     0.118563      0.420704      0.479508     Biso  1.000000 H
   H43        1.0     0.074167      0.255307      0.606272     Biso  1.000000 H
   H44        1.0     0.110714      0.052663      0.480002     Biso  1.000000 H
   H45        1.0     0.135240      0.463041      0.654663     Biso  1.000000 H
   H46        1.0     0.031726      0.256968      0.661274     Biso  1.000000 H
   H47        1.0     0.096186      0.121649      0.609290     Biso  1.000000 H
   H48        1.0     0.099773      0.040246      0.369779     Biso  1.000000 H
   H49        1.0     0.141806      0.288325      0.510369     Biso  1.000000 H
   H50        1.0     0.023901      0.244525      0.520684     Biso  1.000000 H
   H51        1.0     0.238953      0.025731      0.470072     Biso  1.000000 H
   H52        1.0     0.137640      0.088069      0.558815     Biso  1.000000 H
   H53        1.0     0.105227      0.461254      0.521781     Biso  1.000000 H
   H54        1.0     0.231943      0.158031      0.625256     Biso  1.000000 H
   H55        1.0     0.220232      0.427872      0.539009     Biso  1.000000 H
   H56        1.0     0.165165      0.371298      0.530011     Biso  1.000000 H
   H57        1.0     0.234796      0.327141      0.530340     Biso  1.000000 H
   H58        1.0     0.003308      0.118114      0.557306     Biso  1.000000 H
   H59        1.0     0.128462      0.226304      0.765050     Biso  1.000000 H
   H60        1.0     0.089381      0.174392      0.747329     Biso  1.000000 H
   H61        1.0     0.208746      0.383913      0.753364     Biso  1.000000 H
   H62        1.0     0.109774      0.066413      0.788121     Biso  1.000000 H
   H63        1.0     0.168897      0.416503      0.730019     Biso  1.000000 H
   H64        1.0     0.201366      0.178355      0.828282     Biso  1.000000 H
   H65        1.0     0.140781      0.434816      0.824524     Biso  1.000000 H
   H66        1.0     0.214929      0.312791      0.693507     Biso  1.000000 H
   H67        1.0     0.091801      0.469748      0.705358     Biso  1.000000 H
   H68        1.0     0.078824      0.433366      0.980640     Biso  1.000000 H
   H69        1.0     0.025735      0.043424      0.751855     Biso  1.000000 H
   H70        1.0     0.244857      0.169644      0.721625     Biso  1.000000 H
   H71        1.0     0.195312      0.162231      0.678172     Biso  1.000000 H
   H72        1.0     0.246164      0.299365      0.841970     Biso  1.000000 H
   H73        1.0     0.180370      0.377859      0.845015     Biso  1.000000 H
   H74        1.0     0.127760      0.032352      0.748838     Biso  1.000000 H
   H75        1.0     0.003760      0.245098      0.780467     Biso  1.000000 H
   H76        1.0     0.085138      0.243806      0.985496     Biso  1.000000 H
   H77        1.0     0.249346      0.351072      0.960423     Biso  1.000000 H
   H78        1.0     0.051327      0.489828      0.800355     Biso  1.000000 H
   H79        1.0     0.190924      0.117224      0.954195     Biso  1.000000 H
   H80        1.0     0.195122      0.400940      0.674222     Biso  1.000000 H
   H81        1.0     0.140296      0.460054      0.964675     Biso  1.000000 H
   H82        1.0     0.040066      0.251719      0.856729     Biso  1.000000 H
   H83        1.0     0.124658      0.298283      0.937434     Biso  1.000000 H
   H84        1.0     0.075551      0.467704      0.915105     Biso  1.000000 H
   H85        1.0     0.177245      0.705759      0.113617     Biso  1.000000 H
   H86        1.0     0.064770      0.626526      0.089011     Biso  1.000000 H
   H87        1.0     0.148871      0.843433      0.110325     Biso  1.000000 H
   H88        1.0     0.103245      0.612295      0.111834     Biso  1.000000 H
   H89        1.0     0.205449      0.603425      0.001365     Biso  1.000000 H
   H90        1.0     0.199795      0.865908      0.028138     Biso  1.000000 H
   H91        1.0     0.159659      0.958818      0.236047     Biso  1.000000 H
   H92        1.0     0.210223      0.970886      0.201812     Biso  1.000000 H
   H93        1.0     0.019979      0.891752      0.176135     Biso  1.000000 H
   H94        1.0     0.059667      0.764424      0.242576     Biso  1.000000 H
   H95        1.0     0.036760      0.934893      0.079382     Biso  1.000000 H
   H96        1.0     0.103276      0.539979      0.297194     Biso  1.000000 H
   H97        1.0     0.029309      0.772213      0.304518     Biso  1.000000 H
   H98        1.0     0.159442      0.706702      0.234319     Biso  1.000000 H
   H99        1.0     0.035390      0.660719      0.308057     Biso  1.000000 H
   H100       1.0     0.148200      0.938626      0.325037     Biso  1.000000 H
   H101       1.0     0.216990      0.730331      0.236047     Biso  1.000000 H
   H102       1.0     0.124154      0.833984      0.227214     Biso  1.000000 H
   H103       1.0     0.065334      0.649468      0.246691     Biso  1.000000 H
   H104       1.0     0.049773      0.004848      0.137483     Biso  1.000000 H
   H105       1.0     0.046194      0.703530      0.461074     Biso  1.000000 H
   H106       1.0     0.162969      0.712189      0.420172     Biso  1.000000 H
   H107       1.0     0.217132      0.655964      0.363442     Biso  1.000000 H
   H108       1.0     0.119686      0.685547      0.366707     Biso  1.000000 H
   H109       1.0     0.191891      0.959820      0.378777     Biso  1.000000 H
   H110       1.0     0.115269      0.891672      0.450594     Biso  1.000000 H
   H111       1.0     0.165351      0.713950      0.483157     Biso  1.000000 H
   H112       1.0     0.247869      0.630377      0.424342     Biso  1.000000 H
   H113       1.0     0.026598      0.505839      0.634747     Biso  1.000000 H
   H114       1.0     0.085344      0.858641      0.489740     Biso  1.000000 H
   H115       1.0     0.140277      0.974645      0.501618     Biso  1.000000 H
   H116       1.0     0.235412      0.800694      0.524387     Biso  1.000000 H
   H117       1.0     0.054939      0.503558      0.352744     Biso  1.000000 H
   H118       1.0     0.080342      0.916936      0.585095     Biso  1.000000 H
   H119       1.0     0.243325      0.920233      0.488451     Biso  1.000000 H
   H120       1.0     0.014945      0.848781      0.361083     Biso  1.000000 H
   H121       1.0     0.190831      0.949414      0.643635     Biso  1.000000 H
   H122       1.0     0.048896      0.771625      0.528118     Biso  1.000000 H
   H123       1.0     0.057792      0.911126      0.646762     Biso  1.000000 H
   H124       1.0     0.042148      0.657052      0.539832     Biso  1.000000 H
   H125       1.0     0.233853      0.691957      0.532507     Biso  1.000000 H
   H126       1.0     0.098140      0.788798      0.644924     Biso  1.000000 H
   H127       1.0     0.209083      0.667452      0.634116     Biso  1.000000 H
   H128       1.0     0.077492      0.543105      0.591679     Biso  1.000000 H
   H129       1.0     0.153980      0.584348      0.519504     Biso  1.000000 H
   H130       1.0     0.137131      0.783212      0.506721     Biso  1.000000 H
   H131       1.0     0.176352      0.666904      0.544303     Biso  1.000000 H
   H132       1.0     0.015742      0.705792      0.507297     Biso  1.000000 H
   H133       1.0     0.107940      0.516984      0.394633     Biso  1.000000 H
   H134       1.0     0.041537      0.975515      0.332279     Biso  1.000000 H
   H135       1.0     0.997460      0.912379      0.473967     Biso  1.000000 H
   H136       1.0     0.151226      0.924210      0.698116     Biso  1.000000 H
   H137       1.0     0.089005      0.590988      0.765352     Biso  1.000000 H
   H138       1.0     0.079243      0.706637      0.768781     Biso  1.000000 H
   H139       1.0     0.121525      0.657329      0.790398     Biso  1.000000 H
   H140       1.0     0.208088      0.669430      0.819393     Biso  1.000000 H
   H141       1.0     0.229271      0.825885      0.823618     Biso  1.000000 H
   H142       1.0     0.051453      0.751538      0.692437     Biso  1.000000 H
   H143       1.0     0.155715      0.782381      0.823014     Biso  1.000000 H
   H144       1.0     0.149428      0.963771      0.828446     Biso  1.000000 H
   H145       1.0     0.114918      0.822555      0.828968     Biso  1.000000 H
   H146       1.0     0.058795      0.905884      0.764666     Biso  1.000000 H
   H147       1.0     0.038323      0.597009      0.813414     Biso  1.000000 H
   H148       1.0     0.057444      0.753787      0.887261     Biso  1.000000 H
   H149       1.0     0.169100      0.643725      0.689063     Biso  1.000000 H
   H150       1.0     0.233094      0.651842      0.703081     Biso  1.000000 H
   H151       1.0     0.017316      0.842286      0.753611     Biso  1.000000 H
   H152       1.0     0.196016      0.532897      0.859692     Biso  1.000000 H
   H153       1.0     0.105550      0.765433      0.936255     Biso  1.000000 H
   H154       1.0     0.094146      0.697800      0.995838     Biso  1.000000 H
   H155       1.0     0.188734      0.907915      0.848636     Biso  1.000000 H
   H156       1.0     0.079070      0.941316      0.985605     Biso  1.000000 H
   H157       1.0     0.044733      0.795062      0.949313     Biso  1.000000 H
   H158       1.0     0.148458      0.554962      0.861255     Biso  1.000000 H
   H159       1.0     0.094845      0.959398      0.924294     Biso  1.000000 H
   H160       1.0     0.218308      0.832454      0.965744     Biso  1.000000 H
   H161       1.0     0.213038      0.659829      0.937654     Biso  1.000000 H
   H162       1.0     0.004076      0.656393      0.768040     Biso  1.000000 H
   H163       1.0     0.003845      0.516378      0.809573     Biso  1.000000 H
   H164       1.0     0.287553      0.239223      0.072112     Biso  1.000000 H
   H165       1.0     0.376210      0.190792      0.134301     Biso  1.000000 H
   H166       1.0     0.450470      0.272953      0.138526     Biso  1.000000 H
   H167       1.0     0.457069      0.298672      0.030607     Biso  1.000000 H
   H168       1.0     0.366552      0.104246      0.021966     Biso  1.000000 H
   H169       1.0     0.339343      0.060286      0.152955     Biso  1.000000 H
   H170       1.0     0.366727      0.472023      0.177589     Biso  1.000000 H
   H171       1.0     0.364491      0.448863      0.072908     Biso  1.000000 H
   H172       1.0     0.384876      0.488186      0.291405     Biso  1.000000 H
   H173       1.0     0.371726      0.432390      0.005891     Biso  1.000000 H
   H174       1.0     0.259927      0.112739      0.020128     Biso  1.000000 H
   H175       1.0     0.268207      0.460495      0.041306     Biso  1.000000 H
   H176       1.0     0.499590      0.250005      0.244524     Biso  1.000000 H
   H177       1.0     0.436416      0.200025      0.233030     Biso  1.000000 H
   H178       1.0     0.320885      0.426032      0.182170     Biso  1.000000 H
   H179       1.0     0.499171      0.433959      0.224553     Biso  1.000000 H
   H180       1.0     0.351536      0.402417      0.284822     Biso  1.000000 H
   H181       1.0     0.367070      0.240693      0.288059     Biso  1.000000 H
   H182       1.0     0.363721      0.345461      0.223977     Biso  1.000000 H
   H183       1.0     0.311775      0.245705      0.254701     Biso  1.000000 H
   H184       1.0     0.353487      0.279344      0.190318     Biso  1.000000 H
   H185       1.0     0.473760      0.118714      0.330551     Biso  1.000000 H
   H186       1.0     0.302906      0.208842      0.005617     Biso  1.000000 H
   H187       1.0     0.371225      0.252853      0.418828     Biso  1.000000 H
   H188       1.0     0.454891      0.425090      0.464640     Biso  1.000000 H
   H189       1.0     0.294692      0.267124      0.414988     Biso  1.000000 H
   H190       1.0     0.271021      0.376184      0.371892     Biso  1.000000 H
   H191       1.0     0.439162      0.092211      0.386952     Biso  1.000000 H
   H192       1.0     0.327599      0.314110      0.462994     Biso  1.000000 H
   H193       1.0     0.479603      0.144855      0.396910     Biso  1.000000 H
   H194       1.0     0.389570      0.392941      0.342704     Biso  1.000000 H
   H195       1.0     0.482500      0.155360      0.478054     Biso  1.000000 H
   H196       1.0     0.494216      0.030532      0.566715     Biso  1.000000 H
   H197       1.0     0.266321      0.106000      0.508476     Biso  1.000000 H
   H198       1.0     0.422759      0.212567      0.507379     Biso  1.000000 H
   H199       1.0     0.281729      0.410516      0.566770     Biso  1.000000 H
   H200       1.0     0.454743      0.145844      0.592419     Biso  1.000000 H
   H201       1.0     0.276763      0.058150      0.635762     Biso  1.000000 H
   H202       1.0     0.342177      0.360608      0.344459     Biso  1.000000 H
   H203       1.0     0.284363      0.203131      0.526088     Biso  1.000000 H
   H204       1.0     0.400588      0.095936      0.629261     Biso  1.000000 H
   H205       1.0     0.343424      0.338774      0.606629     Biso  1.000000 H
   H206       1.0     0.400897      0.392842      0.570089     Biso  1.000000 H
   H207       1.0     0.310722      0.099920      0.577825     Biso  1.000000 H
   H208       1.0     0.325736      0.499047      0.430597     Biso  1.000000 H
   H209       1.0     0.469136      0.232964      0.338040     Biso  1.000000 H
   H210       1.0     0.261199      0.049366      0.353732     Biso  1.000000 H
   H211       1.0     0.291812      0.008546      0.556017     Biso  1.000000 H
   H212       1.0     0.412189      0.497721      0.501372     Biso  1.000000 H
   H213       1.0     0.447302      0.204265      0.721515     Biso  1.000000 H
   H214       1.0     0.403315      0.106132      0.749496     Biso  1.000000 H
   H215       1.0     0.290140      0.267309      0.735643     Biso  1.000000 H
   H216       1.0     0.419915      0.400116      0.803401     Biso  1.000000 H
   H217       1.0     0.288509      0.071583      0.780659     Biso  1.000000 H
   H218       1.0     0.381414      0.406697      0.699707     Biso  1.000000 H
   H219       1.0     0.315765      0.381401      0.706126     Biso  1.000000 H
   H220       1.0     0.493273      0.222393      0.986977     Biso  1.000000 H
   H221       1.0     0.295742      0.099254      0.693260     Biso  1.000000 H
   H222       1.0     0.390494      0.155762      0.879525     Biso  1.000000 H
   H223       1.0     0.330164      0.015193      0.695757     Biso  1.000000 H
   H224       1.0     0.372515      0.308577      0.827596     Biso  1.000000 H
   H225       1.0     0.477961      0.056673      0.699954     Biso  1.000000 H
   H226       1.0     0.284678      0.055855      0.828912     Biso  1.000000 H
   H227       1.0     0.407957      0.479712      0.867702     Biso  1.000000 H
   H228       1.0     0.283253      0.500801      0.972959     Biso  1.000000 H
   H229       1.0     0.399667      0.215680      0.916998     Biso  1.000000 H
   H230       1.0     0.282011      0.067943      0.963495     Biso  1.000000 H
   H231       1.0     0.474697      0.279337      0.833576     Biso  1.000000 H
   H232       1.0     0.450289      0.376600      0.897548     Biso  1.000000 H
   H233       1.0     0.343909      0.459421      0.832259     Biso  1.000000 H
   H234       1.0     0.455938      0.171892      0.966705     Biso  1.000000 H
   H235       1.0     0.338537      0.272241      0.896067     Biso  1.000000 H
   H236       1.0     0.316297      0.467011      0.872338     Biso  1.000000 H
   H237       1.0     0.318892      0.157430      0.899249     Biso  1.000000 H
   H238       1.0     0.495553      0.122902      0.756300     Biso  1.000000 H
   H239       1.0     0.433355      0.320302      0.994054     Biso  1.000000 H
   H240       1.0     0.498204      0.353836      0.859362     Biso  1.000000 H
   H241       1.0     0.332039      0.675767      0.086542     Biso  1.000000 H
   H242       1.0     0.339916      0.601256      0.057272     Biso  1.000000 H
   H243       1.0     0.419027      0.866567      0.075733     Biso  1.000000 H
   H244       1.0     0.371625      0.567993      0.113425     Biso  1.000000 H
   H245       1.0     0.464642      0.576467      0.031650     Biso  1.000000 H
   H246       1.0     0.387427      0.670149      0.116361     Biso  1.000000 H
   H247       1.0     0.303213      0.755799      0.133862     Biso  1.000000 H
   H248       1.0     0.255967      0.591522      0.230780     Biso  1.000000 H
   H249       1.0     0.264044      0.727746      0.160801     Biso  1.000000 H
   H250       1.0     0.338729      0.848043      0.011103     Biso  1.000000 H
   H251       1.0     0.464340      0.675490      0.177123     Biso  1.000000 H
   H252       1.0     0.369912      0.946967      0.170429     Biso  1.000000 H
   H253       1.0     0.483577      0.875542      0.282243     Biso  1.000000 H
   H254       1.0     0.478742      0.930448      0.219588     Biso  1.000000 H
   H255       1.0     0.301519      0.959616      0.265427     Biso  1.000000 H
   H256       1.0     0.355112      0.954775      0.304875     Biso  1.000000 H
   H257       1.0     0.255087      0.886924      0.180415     Biso  1.000000 H
   H258       1.0     0.351314      0.921242      0.210919     Biso  1.000000 H
   H259       1.0     0.384752      0.846506      0.195310     Biso  1.000000 H
   H260       1.0     0.449387      0.759063      0.206750     Biso  1.000000 H
   H261       1.0     0.388430      0.581815      0.206887     Biso  1.000000 H
   H262       1.0     0.491818      0.768342      0.029537     Biso  1.000000 H
   H263       1.0     0.380260      0.813158      0.302324     Biso  1.000000 H
   H264       1.0     0.498069      0.656202      0.228860     Biso  1.000000 H
   H265       1.0     0.332494      0.810962      0.249544     Biso  1.000000 H
   H266       1.0     0.433755      0.597484      0.248995     Biso  1.000000 H
   H267       1.0     0.465494      0.955949      0.311623     Biso  1.000000 H
   H268       1.0     0.260648      0.741363      0.060810     Biso  1.000000 H
   H269       1.0     0.437984      0.981589      0.031101     Biso  1.000000 H
   H270       1.0     0.323269      0.982433      0.044159     Biso  1.000000 H
   H271       1.0     0.251346      0.870042      0.134164     Biso  1.000000 H
   H272       1.0     0.308848      0.659947      0.329097     Biso  1.000000 H
   H273       1.0     0.367974      0.801301      0.440582     Biso  1.000000 H
   H274       1.0     0.289030      0.886080      0.431584     Biso  1.000000 H
   H275       1.0     0.304433      0.587493      0.480633     Biso  1.000000 H
   H276       1.0     0.387254      0.717254      0.384044     Biso  1.000000 H
   H277       1.0     0.424220      0.914938      0.456493     Biso  1.000000 H
   H278       1.0     0.436800      0.618929      0.473336     Biso  1.000000 H
   H279       1.0     0.467360      0.719977      0.460553     Biso  1.000000 H
   H280       1.0     0.304559      0.975463      0.464119     Biso  1.000000 H
   H281       1.0     0.370476      0.970603      0.484227     Biso  1.000000 H
   H282       1.0     0.494057      0.786872      0.343966     Biso  1.000000 H
   H283       1.0     0.277983      0.789668      0.334117     Biso  1.000000 H
   H284       1.0     0.476805      0.568916      0.591185     Biso  1.000000 H
   H285       1.0     0.480072      0.584004      0.520629     Biso  1.000000 H
   H286       1.0     0.466398      0.862953      0.366186     Biso  1.000000 H
   H287       1.0     0.273080      0.970147      0.662618     Biso  1.000000 H
   H288       1.0     0.298502      0.528142      0.606602     Biso  1.000000 H
   H289       1.0     0.293048      0.686503      0.571050     Biso  1.000000 H
   H290       1.0     0.365617      0.550280      0.600128     Biso  1.000000 H
   H291       1.0     0.351517      0.718012      0.615600     Biso  1.000000 H
   H292       1.0     0.370687      0.989647      0.585863     Biso  1.000000 H
   H293       1.0     0.293158      0.804526      0.562600     Biso  1.000000 H
   H294       1.0     0.405148      0.676275      0.577908     Biso  1.000000 H
   H295       1.0     0.466393      0.719074      0.614146     Biso  1.000000 H
   H296       1.0     0.427484      0.943822      0.552588     Biso  1.000000 H
   H297       1.0     0.278147      0.503960      0.540133     Biso  1.000000 H
   H298       1.0     0.485586      0.526447      0.635461     Biso  1.000000 H
   H299       1.0     0.485408      0.522946      0.342731     Biso  1.000000 H
   H300       1.0     0.326892      0.812215      0.748399     Biso  1.000000 H
   H301       1.0     0.380080      0.857631      0.703794     Biso  1.000000 H
   H302       1.0     0.416083      0.588845      0.706345     Biso  1.000000 H
   H303       1.0     0.450116      0.598691      0.779343     Biso  1.000000 H
   H304       1.0     0.336920      0.936720      0.788642     Biso  1.000000 H
   H305       1.0     0.254010      0.807355      0.708046     Biso  1.000000 H
   H306       1.0     0.384667      0.806326      0.837225     Biso  1.000000 H
   H307       1.0     0.473900      0.662136      0.746424     Biso  1.000000 H
   H308       1.0     0.488787      0.835315      0.691806     Biso  1.000000 H
   H309       1.0     0.369084      0.554098      0.756107     Biso  1.000000 H
   H310       1.0     0.339828      0.990821      0.833850     Biso  1.000000 H
   H311       1.0     0.411380      0.932354      0.813029     Biso  1.000000 H
   H312       1.0     0.483941      0.540461      0.713204     Biso  1.000000 H
   H313       1.0     0.410539      0.761470      0.800109     Biso  1.000000 H
   H314       1.0     0.433881      0.739787      0.957021     Biso  1.000000 H
   H315       1.0     0.274335      0.564366      0.829571     Biso  1.000000 H
   H316       1.0     0.275916      0.743177      0.875300     Biso  1.000000 H
   H317       1.0     0.335117      0.735244      0.891842     Biso  1.000000 H
   H318       1.0     0.438948      0.863712      0.920783     Biso  1.000000 H
   H319       1.0     0.338011      0.834333      0.910962     Biso  1.000000 H
   H320       1.0     0.434854      0.914918      0.852614     Biso  1.000000 H
   H321       1.0     0.310476      0.614135      0.853464     Biso  1.000000 H
   H322       1.0     0.479658      0.690520      0.907725     Biso  1.000000 H
   H323       1.0     0.293300      0.849032      0.861996     Biso  1.000000 H
   H324       1.0     0.496269      0.841884      0.889318     Biso  1.000000 H
   H325       1.0     0.345183      0.987319      0.974605     Biso  1.000000 H
   H326       1.0     0.499346      0.966692      0.846003     Biso  1.000000 H
   H327       1.0     0.282025      0.780047      0.000529     Biso  1.000000 H
   H328       1.0     0.610778      0.277398      0.051895     Biso  1.000000 H
   H329       1.0     0.635679      0.167665      0.097213     Biso  1.000000 H
   H330       1.0     0.639239      0.243957      0.133286     Biso  1.000000 H
   H331       1.0     0.624851      0.361538      0.079711     Biso  1.000000 H
   H332       1.0     0.646765      0.037232      0.081686     Biso  1.000000 H
   H333       1.0     0.694989      0.237937      0.026438     Biso  1.000000 H
   H334       1.0     0.517794      0.082108      0.107829     Biso  1.000000 H
   H335       1.0     0.554570      0.396113      0.011569     Biso  1.000000 H
   H336       1.0     0.506080      0.273877      0.105772     Biso  1.000000 H
   H337       1.0     0.746266      0.037621      0.169716     Biso  1.000000 H
   H338       1.0     0.709868      0.056231      0.058561     Biso  1.000000 H
   H339       1.0     0.740136      0.465013      0.093537     Biso  1.000000 H
   H340       1.0     0.740582      0.181131      0.097021     Biso  1.000000 H
   H341       1.0     0.645521      0.332001      0.311705     Biso  1.000000 H
   H342       1.0     0.640338      0.073186      0.219588     Biso  1.000000 H
   H343       1.0     0.620460      0.452444      0.204528     Biso  1.000000 H
   H344       1.0     0.520934      0.397280      0.317082     Biso  1.000000 H
   H345       1.0     0.553013      0.439927      0.191415     Biso  1.000000 H
   H346       1.0     0.638913      0.262264      0.248803     Biso  1.000000 H
   H347       1.0     0.638203      0.182932      0.282737     Biso  1.000000 H
   H348       1.0     0.738869      0.107160      0.269707     Biso  1.000000 H
   H349       1.0     0.684980      0.404501      0.191525     Biso  1.000000 H
   H350       1.0     0.621428      0.170158      0.198904     Biso  1.000000 H
   H351       1.0     0.661318      0.195164      0.446014     Biso  1.000000 H
   H352       1.0     0.563261      0.357660      0.427167     Biso  1.000000 H
   H353       1.0     0.610030      0.283386      0.468343     Biso  1.000000 H
   H354       1.0     0.642405      0.056930      0.400970     Biso  1.000000 H
   H355       1.0     0.654847      0.246787      0.387144     Biso  1.000000 H
   H356       1.0     0.578603      0.043081      0.398940     Biso  1.000000 H
   H357       1.0     0.536772      0.488839      0.449305     Biso  1.000000 H
   H358       1.0     0.688757      0.103270      0.499506     Biso  1.000000 H
   H359       1.0     0.648936      0.060616      0.658504     Biso  1.000000 H
   H360       1.0     0.737535      0.400841      0.481401     Biso  1.000000 H
   H361       1.0     0.685981      0.483418      0.508257     Biso  1.000000 H
   H362       1.0     0.557752      0.422142      0.663030     Biso  1.000000 H
   H363       1.0     0.525815      0.100216      0.549104     Biso  1.000000 H
   H364       1.0     0.662351      0.138241      0.575302     Biso  1.000000 H
   H365       1.0     0.623574      0.060181      0.523949     Biso  1.000000 H
   H366       1.0     0.732232      0.165364      0.564685     Biso  1.000000 H
   H367       1.0     0.568761      0.167553      0.641989     Biso  1.000000 H
   H368       1.0     0.552402      0.242579      0.544825     Biso  1.000000 H
   H369       1.0     0.624632      0.053501      0.620290     Biso  1.000000 H
   H370       1.0     0.527369      0.324318      0.530395     Biso  1.000000 H
   H371       1.0     0.546768      0.287758      0.611183     Biso  1.000000 H
   H372       1.0     0.539686      0.395737      0.588661     Biso  1.000000 H
   H373       1.0     0.717484      0.441351      0.585534     Biso  1.000000 H
   H374       1.0     0.652720      0.416543      0.588332     Biso  1.000000 H
   H375       1.0     0.634575      0.191531      0.353786     Biso  1.000000 H
   H376       1.0     0.745269      0.189137      0.363168     Biso  1.000000 H
   H377       1.0     0.683470      0.308188      0.338095     Biso  1.000000 H
   H378       1.0     0.681790      0.278664      0.712271     Biso  1.000000 H
   H379       1.0     0.589086      0.251317      0.700310     Biso  1.000000 H
   H380       1.0     0.717600      0.130109      0.739977     Biso  1.000000 H
   H381       1.0     0.702721      0.436373      0.719376     Biso  1.000000 H
   H382       1.0     0.732018      0.434981      0.779535     Biso  1.000000 H
   H383       1.0     0.678351      0.091947      0.717016     Biso  1.000000 H
   H384       1.0     0.673694      0.194980      0.680504     Biso  1.000000 H
   H385       1.0     0.539116      0.372379      0.812069     Biso  1.000000 H
   H386       1.0     0.542503      0.309355      0.983219     Biso  1.000000 H
   H387       1.0     0.539160      0.491740      0.693891     Biso  1.000000 H
   H388       1.0     0.597132      0.483695      0.775639     Biso  1.000000 H
   H389       1.0     0.607462      0.342170      0.984865     Biso  1.000000 H
   H390       1.0     0.709772      0.274727      0.873078     Biso  1.000000 H
   H391       1.0     0.641448      0.018827      0.852367     Biso  1.000000 H
   H392       1.0     0.644312      0.279772      0.809408     Biso  1.000000 H
   H393       1.0     0.610317      0.064863      0.905586     Biso  1.000000 H
   H394       1.0     0.559997      0.286321      0.834811     Biso  1.000000 H
   H395       1.0     0.521877      0.145593      0.936337     Biso  1.000000 H
   H396       1.0     0.601780      0.439030      0.963523     Biso  1.000000 H
   H397       1.0     0.663603      0.269762      0.969064     Biso  1.000000 H
   H398       1.0     0.530587      0.019585      0.977348     Biso  1.000000 H
   H399       1.0     0.619531      0.336624      0.871103     Biso  1.000000 H
   H400       1.0     0.666040      0.151957      0.976937     Biso  1.000000 H
   H401       1.0     0.738113      0.294854      0.811685     Biso  1.000000 H
   H402       1.0     0.729960      0.184455      0.999267     Biso  1.000000 H
   H403       1.0     0.537529      0.790486      0.079299     Biso  1.000000 H
   H404       1.0     0.657092      0.695861      0.079656     Biso  1.000000 H
   H405       1.0     0.534761      0.744027      0.017549     Biso  1.000000 H
   H406       1.0     0.644668      0.538726      0.156850     Biso  1.000000 H
   H407       1.0     0.664379      0.514155      0.076035     Biso  1.000000 H
   H408       1.0     0.540338      0.983818      0.227187     Biso  1.000000 H
   H409       1.0     0.568567      0.555542      0.116443     Biso  1.000000 H
   H410       1.0     0.655658      0.531795      0.029537     Biso  1.000000 H
   H411       1.0     0.731530      0.847384      0.142778     Biso  1.000000 H
   H412       1.0     0.518586      0.895563      0.065693     Biso  1.000000 H
   H413       1.0     0.656190      0.697767      0.030991     Biso  1.000000 H
   H414       1.0     0.524418      0.592637      0.004958     Biso  1.000000 H
   H415       1.0     0.500955      0.958231      0.148319     Biso  1.000000 H
   H416       1.0     0.684262      0.808021      0.156219     Biso  1.000000 H
   H417       1.0     0.502778      0.774092      0.236925     Biso  1.000000 H
   H418       1.0     0.507294      0.558517      0.141598     Biso  1.000000 H
   H419       1.0     0.583983      0.599871      0.176684     Biso  1.000000 H
   H420       1.0     0.742202      0.704797      0.253028     Biso  1.000000 H
   H421       1.0     0.539886      0.767933      0.296398     Biso  1.000000 H
   H422       1.0     0.584498      0.964839      0.283450     Biso  1.000000 H
   H423       1.0     0.568205      0.715440      0.263068     Biso  1.000000 H
   H424       1.0     0.721434      0.527364      0.293463     Biso  1.000000 H
   H425       1.0     0.665999      0.762334      0.293353     Biso  1.000000 H
   H426       1.0     0.622414      0.861825      0.175312     Biso  1.000000 H
   H427       1.0     0.659106      0.564412      0.304463     Biso  1.000000 H
   H428       1.0     0.535997      0.600458      0.299745     Biso  1.000000 H
   H429       1.0     0.709482      0.978186      0.182088     Biso  1.000000 H
   H430       1.0     0.729283      0.946024      0.114221     Biso  1.000000 H
   H431       1.0     0.652863      0.980830      0.286742     Biso  1.000000 H
   H432       1.0     0.734860      0.790756      0.308907     Biso  1.000000 H
   H433       1.0     0.630277      0.819442      0.013023     Biso  1.000000 H
   H434       1.0     0.578693      0.637578      0.405551     Biso  1.000000 H
   H435       1.0     0.632791      0.849454      0.398775     Biso  1.000000 H
   H436       1.0     0.699977      0.860724      0.418746     Biso  1.000000 H
   H437       1.0     0.537145      0.892319      0.411476     Biso  1.000000 H
   H438       1.0     0.677956      0.682059      0.463680     Biso  1.000000 H
   H439       1.0     0.567541      0.880857      0.471581     Biso  1.000000 H
   H440       1.0     0.538332      0.791066      0.484282     Biso  1.000000 H
   H441       1.0     0.504902      0.689293      0.518270     Biso  1.000000 H
   H442       1.0     0.513030      0.792517      0.416661     Biso  1.000000 H
   H443       1.0     0.705195      0.546825      0.432407     Biso  1.000000 H
   H444       1.0     0.651435      0.887940      0.613953     Biso  1.000000 H
   H445       1.0     0.558602      0.578201      0.640563     Biso  1.000000 H
   H446       1.0     0.594885      0.526111      0.574808     Biso  1.000000 H
   H447       1.0     0.554186      0.639471      0.336724     Biso  1.000000 H
   H448       1.0     0.598357      0.524548      0.636613     Biso  1.000000 H
   H449       1.0     0.526427      0.931207      0.532946     Biso  1.000000 H
   H450       1.0     0.503345      0.687163      0.640727     Biso  1.000000 H
   H451       1.0     0.632144      0.681228      0.544961     Biso  1.000000 H
   H452       1.0     0.682440      0.992773      0.612445     Biso  1.000000 H
   H453       1.0     0.727479      0.850562      0.529352     Biso  1.000000 H
   H454       1.0     0.581283      0.582712      0.533193     Biso  1.000000 H
   H455       1.0     0.675150      0.578149      0.650055     Biso  1.000000 H
   H456       1.0     0.604123      0.685158      0.583202     Biso  1.000000 H
   H457       1.0     0.661852      0.813949      0.551819     Biso  1.000000 H
   H458       1.0     0.534487      0.909524      0.580925     Biso  1.000000 H
   H459       1.0     0.741783      0.712176      0.442996     Biso  1.000000 H
   H460       1.0     0.743038      0.634314      0.506172     Biso  1.000000 H
   H461       1.0     0.602301      0.507211      0.380204     Biso  1.000000 H
   H462       1.0     0.548256      0.876722      0.667638     Biso  1.000000 H
   H463       1.0     0.567805      0.737921      0.769659     Biso  1.000000 H
   H464       1.0     0.700692      0.705298      0.742940     Biso  1.000000 H
   H465       1.0     0.654244      0.647859      0.699569     Biso  1.000000 H
   H466       1.0     0.614886      0.801862      0.811822     Biso  1.000000 H
   H467       1.0     0.702726      0.954888      0.722393     Biso  1.000000 H
   H468       1.0     0.524785      0.931028      0.797530     Biso  1.000000 H
   H469       1.0     0.514732      0.513469      0.747411     Biso  1.000000 H
   H470       1.0     0.585243      0.973781      0.766724     Biso  1.000000 H
   H471       1.0     0.562669      0.511095      0.863066     Biso  1.000000 H
   H472       1.0     0.510120      0.586912      0.947035     Biso  1.000000 H
   H473       1.0     0.632201      0.499766      0.832671     Biso  1.000000 H
   H474       1.0     0.720310      0.550174      0.697540     Biso  1.000000 H
   H475       1.0     0.522058      0.764345      0.830257     Biso  1.000000 H
   H476       1.0     0.689212      0.836120      0.986017     Biso  1.000000 H
   H477       1.0     0.620575      0.585218      0.889894     Biso  1.000000 H
   H478       1.0     0.685079      0.918961      0.882104     Biso  1.000000 H
   H479       1.0     0.721365      0.752198      0.894037     Biso  1.000000 H
   H480       1.0     0.683720      0.562678      0.969064     Biso  1.000000 H
   H481       1.0     0.719748      0.680779      0.952879     Biso  1.000000 H
   H482       1.0     0.566317      0.832394      0.864410     Biso  1.000000 H
   H483       1.0     0.697080      0.811733      0.926626     Biso  1.000000 H
   H484       1.0     0.724544      0.889213      0.859088     Biso  1.000000 H
   H485       1.0     0.745263      0.950436      0.772731     Biso  1.000000 H
   H486       1.0     0.807846      0.184475      0.091781     Biso  1.000000 H
   H487       1.0     0.924410      0.190759      0.130323     Biso  1.000000 H
   H488       1.0     0.936735      0.317381      0.055790     Biso  1.000000 H
   H489       1.0     0.913259      0.414347      0.109338     Biso  1.000000 H
   H490       1.0     0.959978      0.406763      0.057957     Biso  1.000000 H
   H491       1.0     0.828277      0.142652      0.026712     Biso  1.000000 H
   H492       1.0     0.860411      0.054609      0.082783     Biso  1.000000 H
   H493       1.0     0.912357      0.273804      0.156878     Biso  1.000000 H
   H494       1.0     0.915369      0.279792      0.285672     Biso  1.000000 H
   H495       1.0     0.814993      0.453347      0.287126     Biso  1.000000 H
   H496       1.0     0.815210      0.232582      0.167439     Biso  1.000000 H
   H497       1.0     0.926236      0.036170      0.095567     Biso  1.000000 H
   H498       1.0     0.954711      0.173627      0.021939     Biso  1.000000 H
   H499       1.0     0.754072      0.238735      0.162748     Biso  1.000000 H
   H500       1.0     0.871319      0.195560      0.019442     Biso  1.000000 H
   H501       1.0     0.990687      0.035366      0.030717     Biso  1.000000 H
   H502       1.0     0.809613      0.466754      0.097240     Biso  1.000000 H
   H503       1.0     0.941298      0.011408      0.026355     Biso  1.000000 H
   H504       1.0     0.807095      0.082642      0.268006     Biso  1.000000 H
   H505       1.0     0.922253      0.084825      0.178056     Biso  1.000000 H
   H506       1.0     0.781596      0.350941      0.321663     Biso  1.000000 H
   H507       1.0     0.823846      0.362349      0.209301     Biso  1.000000 H
   H508       1.0     0.827214      0.307331      0.002544     Biso  1.000000 H
   H509       1.0     0.814514      0.315112      0.253933     Biso  1.000000 H
   H510       1.0     0.979437      0.252517      0.306082     Biso  1.000000 H
   H511       1.0     0.896259      0.139144      0.331923     Biso  1.000000 H
   H512       1.0     0.926907      0.161875      0.212401     Biso  1.000000 H
   H513       1.0     0.968217      0.009641      0.215391     Biso  1.000000 H
   H514       1.0     0.908221      0.496515      0.078696     Biso  1.000000 H
   H515       1.0     0.847015      0.339301      0.419267     Biso  1.000000 H
   H516       1.0     0.865857      0.090496      0.407252     Biso  1.000000 H
   H517       1.0     0.781248      0.126753      0.421105     Biso  1.000000 H
   H518       1.0     0.839116      0.083262      0.365884     Biso  1.000000 H
   H519       1.0     0.817057      0.223706      0.483541     Biso  1.000000 H
   H520       1.0     0.984885      0.133354      0.622787     Biso  1.000000 H
   H521       1.0     0.972703      0.477839      0.479207     Biso  1.000000 H
   H522       1.0     0.758043      0.081963      0.353923     Biso  1.000000 H
   H523       1.0     0.913659      0.411267      0.482937     Biso  1.000000 H
   H524       1.0     0.947391      0.404607      0.651673     Biso  1.000000 H
   H525       1.0     0.982860      0.097836      0.415838     Biso  1.000000 H
   H526       1.0     0.964585      0.161743      0.517338     Biso  1.000000 H
   H527       1.0     0.899813      0.044882      0.358559     Biso  1.000000 H
   H528       1.0     0.963166      0.292045      0.661850     Biso  1.000000 H
   H529       1.0     0.789697      0.073700      0.625530     Biso  1.000000 H
   H530       1.0     0.834986      0.190535      0.550804     Biso  1.000000 H
   H531       1.0     0.813949      0.331236      0.493362     Biso  1.000000 H
   H532       1.0     0.867981      0.424938      0.574177     Biso  1.000000 H
   H533       1.0     0.843721      0.298474      0.556620     Biso  1.000000 H
   H534       1.0     0.829809      0.047625      0.510040     Biso  1.000000 H
   H535       1.0     0.963464      0.268931      0.590828     Biso  1.000000 H
   H536       1.0     0.852337      0.102050      0.611293     Biso  1.000000 H
   H537       1.0     0.988327      0.363008      0.606136     Biso  1.000000 H
   H538       1.0     0.988240      0.357918      0.375924     Biso  1.000000 H
   H539       1.0     0.903847      0.001984      0.618398     Biso  1.000000 H
   H540       1.0     0.817879      0.477120      0.442530     Biso  1.000000 H
   H541       1.0     0.750646      0.039844      0.419102     Biso  1.000000 H
   H542       1.0     0.754373      0.497029      0.342018     Biso  1.000000 H
   H543       1.0     0.822555      0.341280      0.796323     Biso  1.000000 H
   H544       1.0     0.855810      0.450749      0.718717     Biso  1.000000 H
   H545       1.0     0.851600      0.092092      0.736905     Biso  1.000000 H
   H546       1.0     0.954788      0.173924      0.741212     Biso  1.000000 H
   H547       1.0     0.884841      0.017587      0.859198     Biso  1.000000 H
   H548       1.0     0.851562      0.339222      0.675264     Biso  1.000000 H
   H549       1.0     0.756629      0.481782      0.893817     Biso  1.000000 H
   H550       1.0     0.825487      0.178863      0.719595     Biso  1.000000 H
   H551       1.0     0.755083      0.017983      0.886411     Biso  1.000000 H
   H552       1.0     0.986869      0.344933      0.773335     Biso  1.000000 H
   H553       1.0     0.941252      0.270151      0.724807     Biso  1.000000 H
   H554       1.0     0.810055      0.065866      0.711475     Biso  1.000000 H
   H555       1.0     0.782333      0.324899      0.681848     Biso  1.000000 H
   H556       1.0     0.977368      0.022051      0.919219     Biso  1.000000 H
   H557       1.0     0.894622      0.226350      0.903062     Biso  1.000000 H
   H558       1.0     0.978560      0.373415      0.922347     Biso  1.000000 H
   H559       1.0     0.932021      0.124853      0.980064     Biso  1.000000 H
   H560       1.0     0.865648      0.088966      0.917299     Biso  1.000000 H
   H561       1.0     0.784424      0.034007      0.822850     Biso  1.000000 H
   H562       1.0     0.000556      0.181224      0.904406     Biso  1.000000 H
   H563       1.0     0.798073      0.238484      0.985523     Biso  1.000000 H
   H564       1.0     0.964520      0.445315      0.863093     Biso  1.000000 H
   H565       1.0     0.920628      0.222796      0.844466     Biso  1.000000 H
   H566       1.0     0.882756      0.487210      0.971066     Biso  1.000000 H
   H567       1.0     0.796253      0.341471      0.857524     Biso  1.000000 H
   H568       1.0     0.780261      0.404515      0.989364     Biso  1.000000 H
   H569       1.0     0.793027      0.491437      0.863834     Biso  1.000000 H
   H570       1.0     0.841358      0.848524      0.049097     Biso  1.000000 H
   H571       1.0     0.774358      0.661668      0.124288     Biso  1.000000 H
   H572       1.0     0.831407      0.569826      0.032582     Biso  1.000000 H
   H573       1.0     0.775120      0.865393      0.063142     Biso  1.000000 H
   H574       1.0     0.917948      0.584367      0.120942     Biso  1.000000 H
   H575       1.0     0.951573      0.822819      0.062099     Biso  1.000000 H
   H576       1.0     0.980807      0.588812      0.141132     Biso  1.000000 H
   H577       1.0     0.949276      0.706280      0.058616     Biso  1.000000 H
   H578       1.0     0.949501      0.762308      0.017248     Biso  1.000000 H
   H579       1.0     0.785320      0.735045      0.158579     Biso  1.000000 H
   H580       1.0     0.763648      0.584822      0.040209     Biso  1.000000 H
   H581       1.0     0.838259      0.859260      0.166479     Biso  1.000000 H
   H582       1.0     0.903275      0.843776      0.176547     Biso  1.000000 H
   H583       1.0     0.950986      0.731814      0.315930     Biso  1.000000 H
   H584       1.0     0.946508      0.734024      0.237364     Biso  1.000000 H
   H585       1.0     0.792844      0.538364      0.164696     Biso  1.000000 H
   H586       1.0     0.951586      0.499660      0.219643     Biso  1.000000 H
   H587       1.0     0.881424      0.712268      0.220411     Biso  1.000000 H
   H588       1.0     0.869428      0.822812      0.261422     Biso  1.000000 H
   H589       1.0     0.938755      0.637301      0.286605     Biso  1.000000 H
   H590       1.0     0.780549      0.596541      0.204061     Biso  1.000000 H
   H591       1.0     0.791322      0.619912      0.280707     Biso  1.000000 H
   H592       1.0     0.819836      0.918084      0.231439     Biso  1.000000 H
   H593       1.0     0.833822      0.901241      0.331456     Biso  1.000000 H
   H594       1.0     0.817370      0.516430      0.247020     Biso  1.000000 H
   H595       1.0     0.996322      0.852718      0.214513     Biso  1.000000 H
   H596       1.0     0.834970      0.782882      0.400010     Biso  1.000000 H
   H597       1.0     0.947980      0.850054      0.350494     Biso  1.000000 H
   H598       1.0     0.813968      0.871770      0.468234     Biso  1.000000 H
   H599       1.0     0.904634      0.656228      0.362510     Biso  1.000000 H
   H600       1.0     0.825904      0.931180      0.374251     Biso  1.000000 H
   H601       1.0     0.787351      0.737835      0.446589     Biso  1.000000 H
   H602       1.0     0.837261      0.743678      0.354362     Biso  1.000000 H
   H603       1.0     0.921053      0.559730      0.337300     Biso  1.000000 H
   H604       1.0     0.933912      0.925199      0.466670     Biso  1.000000 H
   H605       1.0     0.804020      0.977718      0.452872     Biso  1.000000 H
   H606       1.0     0.860647      0.983732      0.487820     Biso  1.000000 H
   H607       1.0     0.758999      0.742227      0.508504     Biso  1.000000 H
   H608       1.0     0.950888      0.623433      0.534016     Biso  1.000000 H
   H609       1.0     0.761318      0.610112      0.571104     Biso  1.000000 H
   H610       1.0     0.804338      0.570466      0.620098     Biso  1.000000 H
   H611       1.0     0.887837      0.686556      0.612445     Biso  1.000000 H
   H612       1.0     0.900238      0.700767      0.504718     Biso  1.000000 H
   H613       1.0     0.936417      0.954090      0.566057     Biso  1.000000 H
   H614       1.0     0.993143      0.676915      0.420309     Biso  1.000000 H
   H615       1.0     0.800498      0.933106      0.638615     Biso  1.000000 H
   H616       1.0     0.864602      0.779176      0.560735     Biso  1.000000 H
   H617       1.0     0.984343      0.737908      0.628986     Biso  1.000000 H
   H618       1.0     0.822116      0.516898      0.545318     Biso  1.000000 H
   H619       1.0     0.906596      0.795920      0.777340     Biso  1.000000 H
   H620       1.0     0.873048      0.919218      0.751197     Biso  1.000000 H
   H621       1.0     0.881193      0.656307      0.796954     Biso  1.000000 H
   H622       1.0     0.945889      0.862920      0.787380     Biso  1.000000 H
   H623       1.0     0.793178      0.703794      0.728538     Biso  1.000000 H
   H624       1.0     0.828477      0.841620      0.689035     Biso  1.000000 H
   H625       1.0     0.956533      0.801769      0.684372     Biso  1.000000 H
   H626       1.0     0.963303      0.712571      0.761786     Biso  1.000000 H
   H627       1.0     0.909666      0.561827      0.723271     Biso  1.000000 H
   H628       1.0     0.840985      0.594569      0.802825     Biso  1.000000 H
   H629       1.0     0.804826      0.879941      0.976608     Biso  1.000000 H
   H630       1.0     0.907090      0.994409      0.762746     Biso  1.000000 H
   H631       1.0     0.846848      0.773129      0.842162     Biso  1.000000 H
   H632       1.0     0.789686      0.966613      0.945527     Biso  1.000000 H
   H633       1.0     0.981547      0.632765      0.934911     Biso  1.000000 H
   H634       1.0     0.906744      0.499225      0.682836     Biso  1.000000 H
   H635       1.0     0.771434      0.873372      0.901197     Biso  1.000000 H
   H636       1.0     0.815248      0.845952      0.911291     Biso  1.000000 H
   H637       1.0     0.845047      0.555463      0.736932     Biso  1.000000 H
   H638       1.0     0.916950      0.792115      0.917436     Biso  1.000000 H
   H639       1.0     0.866114      0.563634      0.911703     Biso  1.000000 H
   H640       1.0     0.809822      0.704335      0.841312     Biso  1.000000 H
   H641       1.0     0.757958      0.731893      0.672055     Biso  1.000000 H
   H642       1.0     0.762869      0.578947      0.873298     Biso  1.000000 H
   H643       1.0     0.963549      0.598064      0.752980     Biso  1.000000 H
   H644       1.0     0.897889      0.856253      0.977568     Biso  1.000000 H
   H645       1.0     0.818496      0.533747      0.971368     Biso  1.000000 H
   H646       1.0     0.989402      0.987266      0.854287     Biso  1.000000 H
   H647       1.0     0.984811      0.996163      0.747302     Biso  1.000000 H
   H648       1.0     0.988459      0.620855      0.999349     Biso  1.000000 H
   O1         1.0     0.205337      0.251436      0.078010     Biso  1.000000 O
   O2         1.0     0.147139      0.316840      0.086130     Biso  1.000000 O
   O3         1.0     0.240458      0.488938      0.099929     Biso  1.000000 O
   O4         1.0     0.110059      0.125856      0.060673     Biso  1.000000 O
   O5         1.0     0.228216      0.085913      0.084759     Biso  1.000000 O
   O6         1.0     0.218686      0.316860      0.278979     Biso  1.000000 O
   O7         1.0     0.031342      0.187139      0.010280     Biso  1.000000 O
   O8         1.0     0.160686      0.233881      0.330112     Biso  1.000000 O
   O9         1.0     0.239052      0.425927      0.315765     Biso  1.000000 O
   O10        1.0     0.246268      0.026265      0.242384     Biso  1.000000 O
   O11        1.0     0.152264      0.322492      0.215583     Biso  1.000000 O
   O12        1.0     0.022630      0.017488      0.231356     Biso  1.000000 O
   O13        1.0     0.147915      0.481848      0.317631     Biso  1.000000 O
   O14        1.0     0.151675      0.182688      0.186779     Biso  1.000000 O
   O15        1.0     0.045223      0.272136      0.300897     Biso  1.000000 O
   O16        1.0     0.062056      0.406255      0.280103     Biso  1.000000 O
   O17        1.0     0.070262      0.473672      0.044488     Biso  1.000000 O
   O18        1.0     0.113553      0.177966      0.437784     Biso  1.000000 O
   O19        1.0     0.112734      0.327602      0.428100     Biso  1.000000 O
   O20        1.0     0.153903      0.130808      0.376500     Biso  1.000000 O
   O21        1.0     0.240979      0.450208      0.630934     Biso  1.000000 O
   O22        1.0     0.233746      0.410324      0.486750     Biso  1.000000 O
   O23        1.0     0.044388      0.077043      0.505706     Biso  1.000000 O
   O24        1.0     0.201385      0.114177      0.524003     Biso  1.000000 O
   O25        1.0     0.071725      0.358162      0.507517     Biso  1.000000 O
   O26        1.0     0.246169      0.148785      0.561860     Biso  1.000000 O
   O27        1.0     0.119621      0.325855      0.562628     Biso  1.000000 O
   O28        1.0     0.163126      0.395717      0.596397     Biso  1.000000 O
   O29        1.0     0.041773      0.490817      0.496022     Biso  1.000000 O
   O30        1.0     0.165348      0.086031      0.785350     Biso  1.000000 O
   O31        1.0     0.138035      0.164909      0.714218     Biso  1.000000 O
   O32        1.0     0.196161      0.046194      0.731857     Biso  1.000000 O
   O33        1.0     0.045059      0.405866      0.750319     Biso  1.000000 O
   O34        1.0     0.086114      0.126937      0.682809     Biso  1.000000 O
   O35        1.0     0.131737      0.375373      0.871926     Biso  1.000000 O
   O36        1.0     0.104868      0.275446      0.831162     Biso  1.000000 O
   O37        1.0     0.186709      0.055894      0.885505     Biso  1.000000 O
   O38        1.0     0.009697      0.297188      0.726535     Biso  1.000000 O
   O39        1.0     0.175889      0.495183      0.906765     Biso  1.000000 O
   O40        1.0     0.228512      0.416147      0.903254     Biso  1.000000 O
   O41        1.0     0.159039      0.560343      0.058698     Biso  1.000000 O
   O42        1.0     0.107101      0.645037      0.056970     Biso  1.000000 O
   O43        1.0     0.173724      0.552700      0.142833     Biso  1.000000 O
   O44        1.0     0.241554      0.637387      0.115510     Biso  1.000000 O
   O45        1.0     0.021344      0.891844      0.004601     Biso  1.000000 O
   O46        1.0     0.202073      0.948939      0.087995     Biso  1.000000 O
   O47        1.0     0.003470      0.933146      0.280460     Biso  1.000000 O
   O48        1.0     0.094796      0.938434      0.122725     Biso  1.000000 O
   O49        1.0     0.234311      0.919323      0.308112     Biso  1.000000 O
   O50        1.0     0.165781      0.623282      0.315765     Biso  1.000000 O
   O51        1.0     0.014441      0.700998      0.238214     Biso  1.000000 O
   O52        1.0     0.189636      0.559189      0.204391     Biso  1.000000 O
   O53        1.0     0.081424      0.731471      0.317960     Biso  1.000000 O
   O54        1.0     0.196630      0.873175      0.260654     Biso  1.000000 O
   O55        1.0     0.035571      0.651051      0.182746     Biso  1.000000 O
   O56        1.0     0.016447      0.542393      0.059493     Biso  1.000000 O
   O57        1.0     0.101839      0.845036      0.283834     Biso  1.000000 O
   O58        1.0     0.092601      0.974704      0.183515     Biso  1.000000 O
   O59        1.0     0.078873      0.994956      0.049810     Biso  1.000000 O
   O60        1.0     0.069864      0.834979      0.403631     Biso  1.000000 O
   O61        1.0     0.063819      0.935474      0.450924     Biso  1.000000 O
   O62        1.0     0.229172      0.785322      0.442530     Biso  1.000000 O
   O63        1.0     0.110327      0.685092      0.479371     Biso  1.000000 O
   O64        1.0     0.142341      0.576902      0.454270     Biso  1.000000 O
   O65        1.0     0.217165      0.931747      0.439896     Biso  1.000000 O
   O66        1.0     0.240543      0.561399      0.491688     Biso  1.000000 O
   O67        1.0     0.011985      0.757764      0.564219     Biso  1.000000 O
   O68        1.0     0.236739      0.899051      0.593846     Biso  1.000000 O
   O69        1.0     0.224502      0.757784      0.578840     Biso  1.000000 O
   O70        1.0     0.127037      0.780601      0.577661     Biso  1.000000 O
   O71        1.0     0.091376      0.984589      0.525622     Biso  1.000000 O
   O72        1.0     0.123005      0.639794      0.558760     Biso  1.000000 O
   O73        1.0     0.123025      0.680878      0.735451     Biso  1.000000 O
   O74        1.0     0.125842      0.825951      0.752267     Biso  1.000000 O
   O75        1.0     0.045876      0.780185      0.817994     Biso  1.000000 O
   O76        1.0     0.019563      0.967068      0.703136     Biso  1.000000 O
   O77        1.0     0.018919      0.910342      0.801563     Biso  1.000000 O
   O78        1.0     0.143459      0.945952      0.881116     Biso  1.000000 O
   O79        1.0     0.039487      0.513845      0.856263     Biso  1.000000 O
   O80        1.0     0.198989      0.742847      0.881857     Biso  1.000000 O
   O81        1.0     0.136462      0.770709      0.877550     Biso  1.000000 O
   O82        1.0     0.185892      0.526270      0.787353     Biso  1.000000 O
   O83        1.0     0.000455      0.531301      0.701270     Biso  1.000000 O
   O84        1.0     0.209475      0.511550      0.732049     Biso  1.000000 O
   O85        1.0     0.416396      0.279172      0.081933     Biso  1.000000 O
   O86        1.0     0.296413      0.309368      0.134466     Biso  1.000000 O
   O87        1.0     0.346784      0.402451      0.136413     Biso  1.000000 O
   O88        1.0     0.410750      0.217447      0.025834     Biso  1.000000 O
   O89        1.0     0.467867      0.117738      0.012392     Biso  1.000000 O
   O90        1.0     0.389494      0.090107      0.209273     Biso  1.000000 O
   O91        1.0     0.300409      0.458445      0.254098     Biso  1.000000 O
   O92        1.0     0.419969      0.172816      0.321279     Biso  1.000000 O
   O93        1.0     0.255139      0.165693      0.220658     Biso  1.000000 O
   O94        1.0     0.431159      0.395889      0.232838     Biso  1.000000 O
   O95        1.0     0.404416      0.331104      0.184392     Biso  1.000000 O
   O96        1.0     0.429348      0.214585      0.398199     Biso  1.000000 O
   O97        1.0     0.308220      0.126733      0.446891     Biso  1.000000 O
   O98        1.0     0.475075      0.302695      0.420063     Biso  1.000000 O
   O99        1.0     0.354148      0.468303      0.371261     Biso  1.000000 O
   O100       1.0     0.410695      0.022269      0.333432     Biso  1.000000 O
   O101       1.0     0.284977      0.007306      0.413698     Biso  1.000000 O
   O102       1.0     0.498661      0.254654      0.565563     Biso  1.000000 O
   O103       1.0     0.309357      0.397531      0.518818     Biso  1.000000 O
   O104       1.0     0.352514      0.202076      0.524881     Biso  1.000000 O
   O105       1.0     0.334338      0.061137      0.527213     Biso  1.000000 O
   O106       1.0     0.344317      0.106329      0.660561     Biso  1.000000 O
   O107       1.0     0.306578      0.211967      0.638780     Biso  1.000000 O
   O108       1.0     0.470298      0.382739      0.548308     Biso  1.000000 O
   O109       1.0     0.492887      0.002789      0.632909     Biso  1.000000 O
   O110       1.0     0.319292      0.392704      0.774213     Biso  1.000000 O
   O111       1.0     0.353101      0.062693      0.791550     Biso  1.000000 O
   O112       1.0     0.465472      0.458379      0.757095     Biso  1.000000 O
   O113       1.0     0.336564      0.170402      0.832287     Biso  1.000000 O
   O114       1.0     0.497642      0.329271      0.938257     Biso  1.000000 O
   O115       1.0     0.293122      0.409797      0.833082     Biso  1.000000 O
   O116       1.0     0.380195      0.091782      0.929644     Biso  1.000000 O
   O117       1.0     0.422455      0.025270      0.898865     Biso  1.000000 O
   O118       1.0     0.334865      0.230630      0.947859     Biso  1.000000 O
   O119       1.0     0.366042      0.357865      0.942702     Biso  1.000000 O
   O120       1.0     0.491226      0.121174      0.827102     Biso  1.000000 O
   O121       1.0     0.251078      0.407245      0.689365     Biso  1.000000 O
   O122       1.0     0.488055      0.354884      0.719183     Biso  1.000000 O
   O123       1.0     0.440198      0.439406      0.668681     Biso  1.000000 O
   O124       1.0     0.365631      0.720511      0.046710     Biso  1.000000 O
   O125       1.0     0.415719      0.584499      0.082317     Biso  1.000000 O
   O126       1.0     0.421282      0.796817      0.139266     Biso  1.000000 O
   O127       1.0     0.301067      0.885461      0.087145     Biso  1.000000 O
   O128       1.0     0.438770      0.546686      0.137730     Biso  1.000000 O
   O129       1.0     0.300730      0.933040      0.148154     Biso  1.000000 O
   O130       1.0     0.477515      0.809445      0.165684     Biso  1.000000 O
   O131       1.0     0.405715      0.949856      0.216790     Biso  1.000000 O
   O132       1.0     0.313115      0.765024      0.186779     Biso  1.000000 O
   O133       1.0     0.442256      0.792682      0.325476     Biso  1.000000 O
   O134       1.0     0.334752      0.634822      0.165793     Biso  1.000000 O
   O135       1.0     0.472683      0.680093      0.297715     Biso  1.000000 O
   O136       1.0     0.394194      0.632250      0.006851     Biso  1.000000 O
   O137       1.0     0.331439      0.521521      0.300870     Biso  1.000000 O
   O138       1.0     0.460671      0.634841      0.396306     Biso  1.000000 O
   O139       1.0     0.348617      0.503452      0.533715     Biso  1.000000 O
   O140       1.0     0.492692      0.899335      0.445465     Biso  1.000000 O
   O141       1.0     0.473003      0.833186      0.526363     Biso  1.000000 O
   O142       1.0     0.399733      0.558240      0.354006     Biso  1.000000 O
   O143       1.0     0.488173      0.597378      0.448976     Biso  1.000000 O
   O144       1.0     0.306535      0.832367      0.646186     Biso  1.000000 O
   O145       1.0     0.432267      0.548750      0.622732     Biso  1.000000 O
   O146       1.0     0.429784      0.817286      0.657296     Biso  1.000000 O
   O147       1.0     0.329372      0.833733      0.500576     Biso  1.000000 O
   O148       1.0     0.298370      0.709063      0.517090     Biso  1.000000 O
   O149       1.0     0.455726      0.692808      0.535635     Biso  1.000000 O
   O150       1.0     0.315518      0.966204      0.623911     Biso  1.000000 O
   O151       1.0     0.438274      0.864800      0.748372     Biso  1.000000 O
   O152       1.0     0.317327      0.588093      0.796652     Biso  1.000000 O
   O153       1.0     0.312734      0.736219      0.806116     Biso  1.000000 O
   O154       1.0     0.465135      0.878312      0.805979     Biso  1.000000 O
   O155       1.0     0.260286      0.840096      0.910304     Biso  1.000000 O
   O156       1.0     0.264803      0.948418      0.799807     Biso  1.000000 O
   O157       1.0     0.279052      0.941072      0.740745     Biso  1.000000 O
   O158       1.0     0.392522      0.622991      0.838130     Biso  1.000000 O
   O159       1.0     0.451788      0.677574      0.668105     Biso  1.000000 O
   O160       1.0     0.287306      0.978292      0.903281     Biso  1.000000 O
   O161       1.0     0.430217      0.736496      0.852559     Biso  1.000000 O
   O162       1.0     0.301059      0.607415      0.920975     Biso  1.000000 O
   O163       1.0     0.310473      0.745992      0.941357     Biso  1.000000 O
   O164       1.0     0.498206      0.507422      0.829626     Biso  1.000000 O
   O165       1.0     0.679570      0.251508      0.090053     Biso  1.000000 O
   O166       1.0     0.577635      0.304686      0.096911     Biso  1.000000 O
   O167       1.0     0.681725      0.384447      0.117458     Biso  1.000000 O
   O168       1.0     0.600498      0.390231      0.142531     Biso  1.000000 O
   O169       1.0     0.571291      0.277207      0.324708     Biso  1.000000 O
   O170       1.0     0.514121      0.169011      0.048356     Biso  1.000000 O
   O171       1.0     0.714590      0.015259      0.316369     Biso  1.000000 O
   O172       1.0     0.589256      0.105644      0.241040     Biso  1.000000 O
   O173       1.0     0.684180      0.221345      0.189440     Biso  1.000000 O
   O174       1.0     0.683166      0.178012      0.248831     Biso  1.000000 O
   O175       1.0     0.566991      0.243390      0.234127     Biso  1.000000 O
   O176       1.0     0.673980      0.401158      0.001529     Biso  1.000000 O
   O177       1.0     0.700668      0.407317      0.391835     Biso  1.000000 O
   O178       1.0     0.602189      0.290535      0.378475     Biso  1.000000 O
   O179       1.0     0.705332      0.095343      0.368984     Biso  1.000000 O
   O180       1.0     0.725780      0.162693      0.433148     Biso  1.000000 O
   O181       1.0     0.724999      0.108367      0.653017     Biso  1.000000 O
   O182       1.0     0.651158      0.417117      0.355130     Biso  1.000000 O
   O183       1.0     0.514146      0.011177      0.363223     Biso  1.000000 O
   O184       1.0     0.579318      0.421878      0.506310     Biso  1.000000 O
   O185       1.0     0.534331      0.077663      0.602240     Biso  1.000000 O
   O186       1.0     0.592407      0.337969      0.585040     Biso  1.000000 O
   O187       1.0     0.599149      0.192434      0.585808     Biso  1.000000 O
   O188       1.0     0.522329      0.037278      0.454902     Biso  1.000000 O
   O189       1.0     0.583344      0.290245      0.768671     Biso  1.000000 O
   O190       1.0     0.667268      0.170560      0.762472     Biso  1.000000 O
   O191       1.0     0.727904      0.236538      0.687527     Biso  1.000000 O
   O192       1.0     0.528907      0.250394      0.789794     Biso  1.000000 O
   O193       1.0     0.589458      0.449186      0.710899     Biso  1.000000 O
   O194       1.0     0.640612      0.434328      0.678118     Biso  1.000000 O
   O195       1.0     0.725838      0.321219      0.995426     Biso  1.000000 O
   O196       1.0     0.672596      0.030288      0.789794     Biso  1.000000 O
   O197       1.0     0.506343      0.220751      0.870061     Biso  1.000000 O
   O198       1.0     0.740580      0.474133      0.839364     Biso  1.000000 O
   O199       1.0     0.697480      0.208881      0.933429     Biso  1.000000 O
   O200       1.0     0.591519      0.189553      0.955238     Biso  1.000000 O
   O201       1.0     0.592092      0.333129      0.929589     Biso  1.000000 O
   O202       1.0     0.711217      0.058605      0.936748     Biso  1.000000 O
   O203       1.0     0.533289      0.437032      0.965717     Biso  1.000000 O
   O204       1.0     0.685753      0.489999      0.872447     Biso  1.000000 O
   O205       1.0     0.612398      0.557211      0.066132     Biso  1.000000 O
   O206       1.0     0.709232      0.793170      0.076392     Biso  1.000000 O
   O207       1.0     0.703614      0.654830      0.053074     Biso  1.000000 O
   O208       1.0     0.573031      0.868288      0.043061     Biso  1.000000 O
   O209       1.0     0.714270      0.560726      0.138745     Biso  1.000000 O
   O210       1.0     0.592791      0.594107      0.008716     Biso  1.000000 O
   O211       1.0     0.586271      0.940162      0.095018     Biso  1.000000 O
   O212       1.0     0.734997      0.696355      0.161816     Biso  1.000000 O
   O213       1.0     0.590930      0.580582      0.299745     Biso  1.000000 O
   O214       1.0     0.713672      0.846638      0.223154     Biso  1.000000 O
   O215       1.0     0.559043      0.849038      0.200001     Biso  1.000000 O
   O216       1.0     0.574626      0.552634      0.240848     Biso  1.000000 O
   O217       1.0     0.535676      0.708707      0.193939     Biso  1.000000 O
   O218       1.0     0.598897      0.756201      0.301089     Biso  1.000000 O
   O219       1.0     0.524335      0.926452      0.312556     Biso  1.000000 O
   O220       1.0     0.573105      0.757131      0.445136     Biso  1.000000 O
   O221       1.0     0.626323      0.799857      0.475393     Biso  1.000000 O
   O222       1.0     0.583730      0.798670      0.357188     Biso  1.000000 O
   O223       1.0     0.682673      0.918334      0.660122     Biso  1.000000 O
   O224       1.0     0.625673      0.511906      0.528420     Biso  1.000000 O
   O225       1.0     0.692125      0.632052      0.546937     Biso  1.000000 O
   O226       1.0     0.651865      0.622049      0.591377     Biso  1.000000 O
   O227       1.0     0.575687      0.982090      0.546690     Biso  1.000000 O
   O228       1.0     0.592813      0.841297      0.562326     Biso  1.000000 O
   O229       1.0     0.710978      0.814932      0.628575     Biso  1.000000 O
   O230       1.0     0.605338      0.969554      0.661548     Biso  1.000000 O
   O231       1.0     0.546080      0.677495      0.705769     Biso  1.000000 O
   O232       1.0     0.720384      0.750009      0.812480     Biso  1.000000 O
   O233       1.0     0.634202      0.950575      0.716084     Biso  1.000000 O
   O234       1.0     0.596784      0.614551      0.677898     Biso  1.000000 O
   O235       1.0     0.516275      0.863982      0.995865     Biso  1.000000 O
   O236       1.0     0.513787      0.767959      0.951507     Biso  1.000000 O
   O237       1.0     0.500125      0.633279      0.791248     Biso  1.000000 O
   O238       1.0     0.678318      0.844521      0.834728     Biso  1.000000 O
   O239       1.0     0.625928      0.838824      0.909591     Biso  1.000000 O
   O240       1.0     0.664505      0.731049      0.897274     Biso  1.000000 O
   O241       1.0     0.868945      0.403961      0.074170     Biso  1.000000 O
   O242       1.0     0.870593      0.253922      0.086487     Biso  1.000000 O
   O243       1.0     0.815369      0.205234      0.330304     Biso  1.000000 O
   O244       1.0     0.964059      0.237119      0.165546     Biso  1.000000 O
   O245       1.0     0.790969      0.040826      0.105442     Biso  1.000000 O
   O246       1.0     0.884679      0.466800      0.210563     Biso  1.000000 O
   O247       1.0     0.971220      0.378090      0.136605     Biso  1.000000 O
   O248       1.0     0.761428      0.021438      0.010774     Biso  1.000000 O
   O249       1.0     0.925888      0.411768      0.015849     Biso  1.000000 O
   O250       1.0     0.769858      0.448704      0.261642     Biso  1.000000 O
   O251       1.0     0.758627      0.424127      0.200029     Biso  1.000000 O
   O252       1.0     0.862976      0.372063      0.252945     Biso  1.000000 O
   O253       1.0     0.869011      0.057187      0.234429     Biso  1.000000 O
   O254       1.0     0.875679      0.158004      0.190537     Biso  1.000000 O
   O255       1.0     0.849791      0.210622      0.382535     Biso  1.000000 O
   O256       1.0     0.925948      0.276607      0.360260     Biso  1.000000 O
   O257       1.0     0.928691      0.138451      0.379545     Biso  1.000000 O
   O258       1.0     0.763190      0.279245      0.439183     Biso  1.000000 O
   O259       1.0     0.891383      0.159679      0.500631     Biso  1.000000 O
   O260       1.0     0.757747      0.073891      0.491551     Biso  1.000000 O
   O261       1.0     0.866386      0.294676      0.490179     Biso  1.000000 O
   O262       1.0     0.788341      0.255241      0.550421     Biso  1.000000 O
   O263       1.0     0.909170      0.312343      0.646159     Biso  1.000000 O
   O264       1.0     0.938689      0.382179      0.578676     Biso  1.000000 O
   O265       1.0     0.913782      0.179654      0.614722     Biso  1.000000 O
   O266       1.0     0.787362      0.382858      0.580898     Biso  1.000000 O
   O267       1.0     0.880333      0.333847      0.753364     Biso  1.000000 O
   O268       1.0     0.925863      0.251693      0.780303     Biso  1.000000 O
   O269       1.0     0.801520      0.114573      0.765681     Biso  1.000000 O
   O270       1.0     0.777754      0.251614      0.762856     Biso  1.000000 O
   O271       1.0     0.889023      0.008170      0.685332     Biso  1.000000 O
   O272       1.0     0.970552      0.343904      0.987663     Biso  1.000000 O
   O273       1.0     0.992932      0.098964      0.691669     Biso  1.000000 O
   O274       1.0     0.853201      0.108242      0.979488     Biso  1.000000 O
   O275       1.0     0.981681      0.153731      0.971725     Biso  1.000000 O
   O276       1.0     0.797875      0.326725      0.926215     Biso  1.000000 O
   O277       1.0     0.846656      0.263708      0.952714     Biso  1.000000 O
   O278       1.0     0.899446      0.767022      0.047259     Biso  1.000000 O
   O279       1.0     0.847026      0.606347      0.124069     Biso  1.000000 O
   O280       1.0     0.892386      0.632751      0.013380     Biso  1.000000 O
   O281       1.0     0.869998      0.987484      0.016617     Biso  1.000000 O
   O282       1.0     0.782188      0.908528      0.131613     Biso  1.000000 O
   O283       1.0     0.965550      0.878912      0.168482     Biso  1.000000 O
   O284       1.0     0.758175      0.935810      0.202196     Biso  1.000000 O
   O285       1.0     0.862919      0.593843      0.300102     Biso  1.000000 O
   O286       1.0     0.830327      0.633054      0.183213     Biso  1.000000 O
   O287       1.0     0.894924      0.718632      0.302022     Biso  1.000000 O
   O288       1.0     0.981613      0.959240      0.120722     Biso  1.000000 O
   O289       1.0     0.990923      0.525524      0.331456     Biso  1.000000 O
   O290       1.0     0.882731      0.819100      0.379902     Biso  1.000000 O
   O291       1.0     0.959066      0.620373      0.366707     Biso  1.000000 O
   O292       1.0     0.777803      0.606650      0.438333     Biso  1.000000 O
   O293       1.0     0.784090      0.853826      0.350879     Biso  1.000000 O
   O294       1.0     0.873089      0.922561      0.424836     Biso  1.000000 O
   O295       1.0     0.755839      0.637842      0.382535     Biso  1.000000 O
   O296       1.0     0.765284      0.890182      0.405304     Biso  1.000000 O
   O297       1.0     0.838955      0.737275      0.486696     Biso  1.000000 O
   O298       1.0     0.772009      0.926854      0.494733     Biso  1.000000 O
   O299       1.0     0.976817      0.839094      0.527350     Biso  1.000000 O
   O300       1.0     0.794134      0.974480      0.570144     Biso  1.000000 O
   O301       1.0     0.842589      0.920873      0.534976     Biso  1.000000 O
   O302       1.0     0.797026      0.640434      0.508861     Biso  1.000000 O
   O303       1.0     0.965599      0.513674      0.594285     Biso  1.000000 O
   O304       1.0     0.818263      0.742953      0.792153     Biso  1.000000 O
   O305       1.0     0.919749      0.904413      0.719595     Biso  1.000000 O
   O306       1.0     0.867205      0.720663      0.716386     Biso  1.000000 O
   O307       1.0     0.798015      0.875232      0.813303     Biso  1.000000 O
   O308       1.0     0.904393      0.892589      0.819750     Biso  1.000000 O
   O309       1.0     0.992978      0.677343      0.713286     Biso  1.000000 O
   O310       1.0     0.972064      0.979307      0.983438     Biso  1.000000 O
   O311       1.0     0.826784      0.537005      0.684070     Biso  1.000000 O
   O312       1.0     0.889602      0.626487      0.673975     Biso  1.000000 O
   O313       1.0     0.921601      0.528624      0.816102     Biso  1.000000 O
   O314       1.0     0.749827      0.898445      0.974633     Biso  1.000000 O
   O315       1.0     0.827077      0.699448      0.945225     Biso  1.000000 O
   O316       1.0     0.876688      0.602284      0.848609     Biso  1.000000 O
   O317       1.0     0.772311      0.759689      0.930110     Biso  1.000000 O
   O318       1.0     0.939487      0.793018      0.850282     Biso  1.000000 O
   O319       1.0     0.995697      0.612044      0.868141     Biso  1.000000 O
   O320       1.0     0.780132      0.500907      0.722640     Biso  1.000000 O

# Number_of_total_atoms: 1768
# Number_of_atom_type: 3
# Name_of_each_atom:  C  H O
# Number_of_each_atom: 800 648 320
# Created_by: Lihua Chen (lihua.chen@mse.gatech.edu)
# Tool: VASP 
# K-points: 1 1 1
# Pseudopotential: PBE-HSE06
# Material_class: MC_Pol
# Geometry_class: GC_PD
# Bandgap_(eV): 3.36

# Note: average bandgap of 5 configurations
# Note:  HSE06 Band gap is derived from PBE band gap, based on Eg (HSE06)=1.140*Eg (PBE) + 0.799, R2=0.97
