#======================================================================

# Note: Amorphous region of polybutylene terephthalate
# Common_name: Amorphous region
#----------------------------------------------------------------------

data_VESTA_phase_1


_chemical_name_common                  'C  H  O                               '
_cell_length_a                         19.59408
_cell_length_b                         27.36014
_cell_length_c                         46.41261
_cell_angle_alpha                      90
_cell_angle_beta                       90
_cell_angle_gamma                      90
_space_group_name_H-M_alt              'P 1'
_space_group_IT_number                 1

loop_
_space_group_symop_operation_xyz
   'x, y, z'

loop_
   _atom_site_label
   _atom_site_occupancy
   _atom_site_fract_x
   _atom_site_fract_y
   _atom_site_fract_z
   _atom_site_adp_type
   _atom_site_B_iso_or_equiv
   _atom_site_type_symbol
   C1         1.0     0.622841      0.801932      0.126761     Biso  1.000000 C
   C2         1.0     0.151198      0.968349      0.337049     Biso  1.000000 C
   C3         1.0     0.127436      0.985217      0.310353     Biso  1.000000 C
   C4         1.0     0.109155      0.950868      0.288269     Biso  1.000000 C
   C5         1.0     0.129181      0.902345      0.292125     Biso  1.000000 C
   C6         1.0     0.161074      0.887575      0.318088     Biso  1.000000 C
   C7         1.0     0.539831      0.839980      0.154383     Biso  1.000000 C
   C8         1.0     0.005404      0.866285      0.082570     Biso  1.000000 C
   C9         1.0     0.068597      0.852875      0.101940     Biso  1.000000 C
   C10        1.0     0.096927      0.802360      0.099484     Biso  1.000000 C
   C11        1.0     0.163421      0.790938      0.116634     Biso  1.000000 C
   C12        1.0     0.388964      0.480757      0.165005     Biso  1.000000 C
   C13        1.0     0.332702      0.440154      0.163604     Biso  1.000000 C
   C14        1.0     0.167351      0.918134      0.342026     Biso  1.000000 C
   C15        1.0     0.276644      0.443878      0.185926     Biso  1.000000 C
   C16        1.0     0.943055      0.439551      0.002269     Biso  1.000000 C
   C17        1.0     0.908289      0.487785      0.992323     Biso  1.000000 C
   C18        1.0     0.961188      0.521915      0.976595     Biso  1.000000 C
   C19        1.0     0.922482      0.555387      0.955200     Biso  1.000000 C
   C20        1.0     0.863623      0.419350      0.752582     Biso  1.000000 C
   C21        1.0     0.919553      0.452233      0.739956     Biso  1.000000 C
   C22        1.0     0.991743      0.436579      0.745472     Biso  1.000000 C
   C23        1.0     0.043604      0.479203      0.740215     Biso  1.000000 C
   C24        1.0     0.171679      0.662057      0.914241     Biso  1.000000 C
   C25        1.0     0.248064      0.654791      0.920985     Biso  1.000000 C
   C26        1.0     0.297742      0.689699      0.904287     Biso  1.000000 C
   C27        1.0     0.372444      0.676322      0.911203     Biso  1.000000 C
   C28        1.0     0.217141      0.481159      0.182134     Biso  1.000000 C
   C29        1.0     0.414926      0.354054      0.822735     Biso  1.000000 C
   C30        1.0     0.614129      0.668069      0.281051     Biso  1.000000 C
   C31        1.0     0.522877      0.694111      0.314188     Biso  1.000000 C
   C32        1.0     0.853727      0.847184      0.522408     Biso  1.000000 C
   C33        1.0     0.837247      0.864753      0.494527     Biso  1.000000 C
   C34        1.0     0.834527      0.832670      0.471129     Biso  1.000000 C
   C35        1.0     0.850792      0.782020      0.474447     Biso  1.000000 C
   C36        1.0     0.864169      0.765072      0.501874     Biso  1.000000 C
   C37        1.0     0.522790      0.741315      0.449259     Biso  1.000000 C
   C38        1.0     0.520192      0.779816      0.470590     Biso  1.000000 C
   C39        1.0     0.505489      0.766753      0.498470     Biso  1.000000 C
   C40        1.0     0.499696      0.718076      0.507520     Biso  1.000000 C
   C41        1.0     0.503749      0.681077      0.485931     Biso  1.000000 C
   C42        1.0     0.517860      0.692046      0.457124     Biso  1.000000 C
   C43        1.0     0.759208      0.592017      0.605855     Biso  1.000000 C
   C44        1.0     0.549410      0.662605      0.293677     Biso  1.000000 C
   C45        1.0     0.795092      0.593062      0.579720     Biso  1.000000 C
   C46        1.0     0.889533      0.635007      0.603291     Biso  1.000000 C
   C47        1.0     0.854635      0.630445      0.630072     Biso  1.000000 C
   C48        1.0     0.788350      0.610606      0.631732     Biso  1.000000 C
   C49        1.0     0.001066      0.690240      0.417264     Biso  1.000000 C
   C50        1.0     0.950292      0.671775      0.398541     Biso  1.000000 C
   C51        1.0     0.955900      0.680789      0.367644     Biso  1.000000 C
   C52        1.0     0.016540      0.701998      0.357776     Biso  1.000000 C
   C53        1.0     0.064759      0.723000      0.375680     Biso  1.000000 C
   C54        1.0     0.059599      0.715456      0.404983     Biso  1.000000 C
   C55        1.0     0.652712      0.711264      0.287558     Biso  1.000000 C
   C56        1.0     0.625709      0.743350      0.307876     Biso  1.000000 C
   C57        1.0     0.561914      0.735755      0.320631     Biso  1.000000 C
   C58        1.0     0.858397      0.616315      0.577608     Biso  1.000000 C
   C59        1.0     0.867466      0.797005      0.525596     Biso  1.000000 C
   C60        1.0     0.458301      0.349833      0.795803     Biso  1.000000 C
   C61        1.0     0.470244      0.316474      0.743705     Biso  1.000000 C
   C62        1.0     0.180978      0.321189      0.163820     Biso  1.000000 C
   C63        1.0     0.114003      0.343828      0.174571     Biso  1.000000 C
   C64        1.0     0.098902      0.426291      0.382360     Biso  1.000000 C
   C65        1.0     0.037572      0.408008      0.400975     Biso  1.000000 C
   C66        1.0     0.055184      0.409540      0.433531     Biso  1.000000 C
   C67        1.0     0.992457      0.395454      0.452298     Biso  1.000000 C
   C68        1.0     0.049622      0.537354      0.650239     Biso  1.000000 C
   C69        1.0     0.119025      0.563709      0.658965     Biso  1.000000 C
   C70        1.0     0.124272      0.614232      0.645736     Biso  1.000000 C
   C71        1.0     0.197049      0.626406      0.635157     Biso  1.000000 C
   C72        1.0     0.260221      0.462420      0.449626     Biso  1.000000 C
   C73        1.0     0.249345      0.509620      0.431506     Biso  1.000000 C
   C74        1.0     0.173271      0.289975      0.136241     Biso  1.000000 C
   C75        1.0     0.183881      0.539459      0.436461     Biso  1.000000 C
   C76        1.0     0.160696      0.614528      0.208678     Biso  1.000000 C
   C77        1.0     0.103383      0.644455      0.195622     Biso  1.000000 C
   C78        1.0     0.112293      0.660847      0.165500     Biso  1.000000 C
   C79        1.0     0.053526      0.657009      0.145958     Biso  1.000000 C
   C80        1.0     0.653513      0.819136      0.218245     Biso  1.000000 C
   C81        1.0     0.685911      0.867900      0.227509     Biso  1.000000 C
   C82        1.0     0.663858      0.906730      0.206136     Biso  1.000000 C
   C83        1.0     0.704258      0.953660      0.211544     Biso  1.000000 C
   C84        1.0     0.183448      0.940316      0.149384     Biso  1.000000 C
   C85        1.0     0.209568      0.918708      0.178083     Biso  1.000000 C
   C86        1.0     0.289959      0.923170      0.181703     Biso  1.000000 C
   C87        1.0     0.309761      0.897169      0.210596     Biso  1.000000 C
   C88        1.0     0.186183      0.591330      0.424546     Biso  1.000000 C
   C89        1.0     0.420703      0.330670      0.767427     Biso  1.000000 C
   C90        1.0     0.235096      0.259669      0.125619     Biso  1.000000 C
   C91        1.0     0.589958      0.552511      0.089508     Biso  1.000000 C
   C92        1.0     0.274807      0.115901      0.581681     Biso  1.000000 C
   C93        1.0     0.244390      0.152180      0.561018     Biso  1.000000 C
   C94        1.0     0.290378      0.165923      0.535034     Biso  1.000000 C
   C95        1.0     0.251902      0.186924      0.509049     Biso  1.000000 C
   C96        1.0     0.781353      0.051205      0.475545     Biso  1.000000 C
   C97        1.0     0.740381      0.100090      0.476967     Biso  1.000000 C
   C98        1.0     0.777178      0.142008      0.490391     Biso  1.000000 C
   C99        1.0     0.801788      0.137176      0.521029     Biso  1.000000 C
   C100       1.0     0.219658      0.346945      0.541066     Biso  1.000000 C
   C101       1.0     0.262727      0.340911      0.513962     Biso  1.000000 C
   C102       1.0     0.228247      0.345955      0.483841     Biso  1.000000 C
   C103       1.0     0.279972      0.333539      0.460291     Biso  1.000000 C
   C104       1.0     0.579991      0.515555      0.065398     Biso  1.000000 C
   C105       1.0     0.113809      0.286825      0.256984     Biso  1.000000 C
   C106       1.0     0.164452      0.211262      0.233176     Biso  1.000000 C
   C107       1.0     0.150953      0.157736      0.224514     Biso  1.000000 C
   C108       1.0     0.613297      0.067239      0.175929     Biso  1.000000 C
   C109       1.0     0.620340      0.100729      0.150246     Biso  1.000000 C
   C110       1.0     0.686044      0.090071      0.132341     Biso  1.000000 C
   C111       1.0     0.680077      0.117440      0.103491     Biso  1.000000 C
   C112       1.0     0.300417      0.967286      0.991547     Biso  1.000000 C
   C113       1.0     0.253918      0.940824      0.012180     Biso  1.000000 C
   C114       1.0     0.293272      0.905908      0.031270     Biso  1.000000 C
   C115       1.0     0.244624      0.888547      0.054927     Biso  1.000000 C
   C116       1.0     0.526914      0.619619      0.117884     Biso  1.000000 C
   C117       1.0     0.539744      0.596341      0.088431     Biso  1.000000 C
   C118       1.0     0.100525      0.234840      0.246534     Biso  1.000000 C
   C119       1.0     0.527618      0.606929      0.696326     Biso  1.000000 C
   C120       1.0     0.552462      0.640036      0.676008     Biso  1.000000 C
   C121       1.0     0.608081      0.671048      0.681071     Biso  1.000000 C
   C122       1.0     0.541081      0.859190      0.863953     Biso  1.000000 C
   C123       1.0     0.569248      0.873620      0.837408     Biso  1.000000 C
   C124       1.0     0.584028      0.924073      0.832173     Biso  1.000000 C
   C125       1.0     0.562624      0.959406      0.853977     Biso  1.000000 C
   C126       1.0     0.531864      0.943313      0.879681     Biso  1.000000 C
   C127       1.0     0.523152      0.893503      0.885477     Biso  1.000000 C
   C128       1.0     0.065596      0.036472      0.894182     Biso  1.000000 C
   C129       1.0     0.085709      0.987311      0.896401     Biso  1.000000 C
   C130       1.0     0.047907      0.947834      0.883129     Biso  1.000000 C
   C131       1.0     0.984705      0.960374      0.870826     Biso  1.000000 C
   C132       1.0     0.959335      0.008988      0.871688     Biso  1.000000 C
   C133       1.0     0.999026      0.046077      0.884788     Biso  1.000000 C
   C134       1.0     0.697052      0.401897      0.835060     Biso  1.000000 C
   C135       1.0     0.684191      0.012631      0.951601     Biso  1.000000 C
   C136       1.0     0.700043      0.082078      0.984739     Biso  1.000000 C
   C137       1.0     0.643229      0.105229      0.971984     Biso  1.000000 C
   C138       1.0     0.609510      0.082023      0.948714     Biso  1.000000 C
   C139       1.0     0.630501      0.037012      0.937575     Biso  1.000000 C
   C140       1.0     0.776882      0.368663      0.086061     Biso  1.000000 C
   C141       1.0     0.738906      0.398666      0.105151     Biso  1.000000 C
   C142       1.0     0.743290      0.450461      0.102285     Biso  1.000000 C
   C143       1.0     0.787151      0.470282      0.081579     Biso  1.000000 C
   C144       1.0     0.820962      0.438970      0.061455     Biso  1.000000 C
   C145       1.0     0.816986      0.387380      0.062877     Biso  1.000000 C
   C146       1.0     0.127517      0.574736      0.032368     Biso  1.000000 C
   C147       1.0     0.170010      0.538026      0.042000     Biso  1.000000 C
   C148       1.0     0.720671      0.035254      0.974699     Biso  1.000000 C
   C149       1.0     0.193777      0.502942      0.022673     Biso  1.000000 C
   C150       1.0     0.677653      0.445146      0.848440     Biso  1.000000 C
   C151       1.0     0.620003      0.471020      0.805089     Biso  1.000000 C
   C152       1.0     0.396303      0.277479      0.191011     Biso  1.000000 C
   C153       1.0     0.432375      0.322102      0.195277     Biso  1.000000 C
   C154       1.0     0.415370      0.352702      0.218180     Biso  1.000000 C
   C155       1.0     0.359552      0.339924      0.236882     Biso  1.000000 C
   C156       1.0     0.323439      0.297435      0.230784     Biso  1.000000 C
   C157       1.0     0.341501      0.265235      0.208657     Biso  1.000000 C
   C158       1.0     0.571172      0.579736      0.204455     Biso  1.000000 C
   C159       1.0     0.574433      0.538117      0.186357     Biso  1.000000 C
   C160       1.0     0.636431      0.520325      0.174528     Biso  1.000000 C
   C161       1.0     0.698307      0.544945      0.183599     Biso  1.000000 C
   C162       1.0     0.695051      0.587591      0.200685     Biso  1.000000 C
   C163       1.0     0.631517      0.606637      0.209669     Biso  1.000000 C
   C164       1.0     0.643730      0.481590      0.832841     Biso  1.000000 C
   C165       1.0     0.977121      0.535351      0.319769     Biso  1.000000 C
   C166       1.0     0.913010      0.516751      0.362516     Biso  1.000000 C
   C167       1.0     0.967792      0.539079      0.379731     Biso  1.000000 C
   C168       1.0     0.027834      0.552580      0.367234     Biso  1.000000 C
   C169       1.0     0.033341      0.548713      0.336575     Biso  1.000000 C
   C170       1.0     0.747572      0.436009      0.572631     Biso  1.000000 C
   C171       1.0     0.800583      0.456334      0.588489     Biso  1.000000 C
   C172       1.0     0.821329      0.439675      0.615335     Biso  1.000000 C
   C173       1.0     0.785339      0.400523      0.627099     Biso  1.000000 C
   C174       1.0     0.731925      0.377647      0.610552     Biso  1.000000 C
   C175       1.0     0.711796      0.395764      0.583921     Biso  1.000000 C
   C176       1.0     0.667936      0.389522      0.809528     Biso  1.000000 C
   C177       1.0     0.632864      0.423089      0.792011     Biso  1.000000 C
   C178       1.0     0.915541      0.518373      0.332524     Biso  1.000000 C
   C179       1.0     0.169469      0.502770      0.993163     Biso  1.000000 C
   C180       1.0     0.136382      0.545088      0.983597     Biso  1.000000 C
   C181       1.0     0.114442      0.582620      0.002528     Biso  1.000000 C
   C182       1.0     0.659117      0.056453      0.679606     Biso  1.000000 C
   C183       1.0     0.653217      0.076153      0.651877     Biso  1.000000 C
   C184       1.0     0.597552      0.103266      0.642505     Biso  1.000000 C
   C185       1.0     0.546884      0.115097      0.663878     Biso  1.000000 C
   C186       1.0     0.553366      0.097502      0.691715     Biso  1.000000 C
   C187       1.0     0.880000      0.978254      0.581077     Biso  1.000000 C
   C188       1.0     0.907947      0.022261      0.569830     Biso  1.000000 C
   C189       1.0     0.973028      0.038752      0.578621     Biso  1.000000 C
   C190       1.0     0.013840      0.010410      0.596224     Biso  1.000000 C
   C191       1.0     0.988104      0.966324      0.606243     Biso  1.000000 C
   C192       1.0     0.923059      0.950495      0.598766     Biso  1.000000 C
   C193       1.0     0.070965      0.886073      0.739547     Biso  1.000000 C
   C194       1.0     0.609270      0.066815      0.700290     Biso  1.000000 C
   C195       1.0     0.034418      0.878759      0.714446     Biso  1.000000 C
   C196       1.0     0.941401      0.841724      0.743167     Biso  1.000000 C
   C197       1.0     0.970476      0.854987      0.768720     Biso  1.000000 C
   C198       1.0     0.038761      0.873390      0.766673     Biso  1.000000 C
   C199       1.0     0.472698      0.761366      0.777338     Biso  1.000000 C
   C200       1.0     0.427399      0.765569      0.800953     Biso  1.000000 C
   C201       1.0     0.390087      0.722959      0.810498     Biso  1.000000 C
   C202       1.0     0.393363      0.679093      0.794575     Biso  1.000000 C
   C203       1.0     0.435560      0.676911      0.768871     Biso  1.000000 C
   C204       1.0     0.471035      0.719370      0.760145     Biso  1.000000 C
   C205       1.0     0.556535      0.607825      0.724292     Biso  1.000000 C
   C206       1.0     0.612511      0.639086      0.731144     Biso  1.000000 C
   C207       1.0     0.641173      0.668647      0.708629     Biso  1.000000 C
   C208       1.0     0.973748      0.850444      0.716967     Biso  1.000000 C
   C209       1.0     0.097753      0.012305      0.812307     Biso  1.000000 C
   C210       1.0     0.027952      0.010680      0.803883     Biso  1.000000 C
   C211       1.0     0.010630      0.025777      0.775787     Biso  1.000000 C
   C212       1.0     0.356913      0.166098      0.990212     Biso  1.000000 C
   C213       1.0     0.419575      0.138094      0.990750     Biso  1.000000 C
   C214       1.0     0.428379      0.099512      0.970562     Biso  1.000000 C
   C215       1.0     0.372847      0.084121      0.952636     Biso  1.000000 C
   C216       1.0     0.313186      0.113127      0.950933     Biso  1.000000 C
   C217       1.0     0.306924      0.154483      0.968256     Biso  1.000000 C
   C218       1.0     0.177992      0.787075      0.844992     Biso  1.000000 C
   C219       1.0     0.111242      0.795042      0.854020     Biso  1.000000 C
   C220       1.0     0.056920      0.775357      0.839369     Biso  1.000000 C
   C221       1.0     0.070015      0.752659      0.811984     Biso  1.000000 C
   C222       1.0     0.137689      0.743709      0.802892     Biso  1.000000 C
   C223       1.0     0.193247      0.763599      0.818793     Biso  1.000000 C
   C224       1.0     0.125558      0.802721      0.638152     Biso  1.000000 C
   C225       1.0     0.178160      0.835525      0.628844     Biso  1.000000 C
   C226       1.0     0.171740      0.864929      0.602795     Biso  1.000000 C
   C227       1.0     0.113248      0.859549      0.586657     Biso  1.000000 C
   C228       1.0     0.063881      0.824355      0.595491     Biso  1.000000 C
   C229       1.0     0.063779      0.798083      0.621756     Biso  1.000000 C
   C230       1.0     0.438566      0.012565      0.603657     Biso  1.000000 C
   C231       1.0     0.502779      0.000200      0.614279     Biso  1.000000 C
   C232       1.0     0.509572      0.988872      0.644056     Biso  1.000000 C
   C233       1.0     0.454086      0.989709      0.663856     Biso  1.000000 C
   C234       1.0     0.390107      0.005560      0.652997     Biso  1.000000 C
   C235       1.0     0.381972      0.014978      0.623393     Biso  1.000000 C
   C236       1.0     0.147207      0.036431      0.796471     Biso  1.000000 C
   C237       1.0     0.129084      0.055156      0.769237     Biso  1.000000 C
   C238       1.0     0.060987      0.050320      0.758809     Biso  1.000000 C
   C239       1.0     0.544251      0.520084      0.479941     Biso  1.000000 C
   C240       1.0     0.916782      0.374419      0.354501     Biso  1.000000 C
   C241       1.0     0.873784      0.356079      0.329400     Biso  1.000000 C
   C242       1.0     0.832726      0.392544      0.311883     Biso  1.000000 C
   C243       1.0     0.608244      0.697130      0.834866     Biso  1.000000 C
   C244       1.0     0.584554      0.727371      0.860290     Biso  1.000000 C
   C245       1.0     0.555892      0.095941      0.866215     Biso  1.000000 C
   C246       1.0     0.493036      0.125203      0.875566     Biso  1.000000 C
   C247       1.0     0.432967      0.114596      0.858092     Biso  1.000000 C
   C248       1.0     0.369667      0.142736      0.868607     Biso  1.000000 C
   C249       1.0     0.102367      0.150181      0.933266     Biso  1.000000 C
   C250       1.0     0.832220      0.900495      0.835965     Biso  1.000000 C
   C251       1.0     0.788620      0.886120      0.863457     Biso  1.000000 C
   C252       1.0     0.738615      0.926021      0.874855     Biso  1.000000 C
   C253       1.0     0.708836      0.907845      0.904912     Biso  1.000000 C
   C254       1.0     0.639004      0.221335      0.017373     Biso  1.000000 C
   C255       1.0     0.630190      0.643720      0.841696     Biso  1.000000 C
   C256       1.0     0.685645      0.232216      0.042861     Biso  1.000000 C
   C257       1.0     0.806253      0.237439      0.062705     Biso  1.000000 C
   C258       1.0     0.826193      0.588636      0.044025     Biso  1.000000 C
   C259       1.0     0.902874      0.598717      0.050273     Biso  1.000000 C
   C260       1.0     0.926269      0.653110      0.043529     Biso  1.000000 C
   C261       1.0     0.000729      0.665102      0.055854     Biso  1.000000 C
   C262       1.0     0.237882      0.381137      0.969872     Biso  1.000000 C
   C263       1.0     0.284963      0.347406      0.988143     Biso  1.000000 C
   C264       1.0     0.242277      0.318850      0.011275     Biso  1.000000 C
   C265       1.0     0.285346      0.279036      0.026853     Biso  1.000000 C
   C266       1.0     0.329058      0.999442      0.892350     Biso  1.000000 C
   C267       1.0     0.304152      0.952092      0.907282     Biso  1.000000 C
   C268       1.0     0.274562      0.911189      0.887610     Biso  1.000000 C
   C269       1.0     0.760740      0.226500      0.035924     Biso  1.000000 C
   C270       1.0     0.260001      0.864947      0.903813     Biso  1.000000 C
   C271       1.0     0.572315      0.602923      0.842234     Biso  1.000000 C
   C272       1.0     0.714664      0.291799      0.738922     Biso  1.000000 C
   C273       1.0     0.322168      0.788164      0.967481     Biso  1.000000 C
   C274       1.0     0.279058      0.770306      0.992259     Biso  1.000000 C
   C275       1.0     0.211482      0.752638      0.981615     Biso  1.000000 C
   C276       1.0     0.172822      0.732521      0.007526     Biso  1.000000 C
   C277       1.0     0.721233      0.672956      0.924303     Biso  1.000000 C
   C278       1.0     0.705993      0.618961      0.917236     Biso  1.000000 C
   C279       1.0     0.684017      0.590087      0.943004     Biso  1.000000 C
   C280       1.0     0.677342      0.535537      0.938221     Biso  1.000000 C
   C281       1.0     0.497522      0.276518      0.070009     Biso  1.000000 C
   C282       1.0     0.534013      0.262892      0.098557     Biso  1.000000 C
   C283       1.0     0.502825      0.216434      0.113316     Biso  1.000000 C
   C284       1.0     0.523719      0.210181      0.144299     Biso  1.000000 C
   C285       1.0     0.655371      0.282698      0.760145     Biso  1.000000 C
   C286       1.0     0.383631      0.446689      0.287407     Biso  1.000000 C
   C287       1.0     0.374174      0.513768      0.250564     Biso  1.000000 C
   C288       1.0     0.403356      0.565314      0.241083     Biso  1.000000 C
   C289       1.0     0.889406      0.528169      0.176295     Biso  1.000000 C
   C290       1.0     0.949271      0.551575      0.193208     Biso  1.000000 C
   C291       1.0     0.938768      0.560533      0.225656     Biso  1.000000 C
   C292       1.0     0.932240      0.514357      0.243561     Biso  1.000000 C
   C293       1.0     0.888890      0.545563      0.454150     Biso  1.000000 C
   C294       1.0     0.817777      0.530621      0.464363     Biso  1.000000 C
   C295       1.0     0.809504      0.540343      0.496488     Biso  1.000000 C
   C296       1.0     0.744633      0.515698      0.508467     Biso  1.000000 C
   C297       1.0     0.757075      0.330907      0.694926     Biso  1.000000 C
   C298       1.0     0.699563      0.329869      0.715523     Biso  1.000000 C
   C299       1.0     0.416146      0.494569      0.277151     Biso  1.000000 C
   C300       1.0     0.974406      0.687598      0.753358     Biso  1.000000 C
   C301       1.0     0.005261      0.661187      0.726749     Biso  1.000000 C
   C302       1.0     0.008895      0.691892      0.699967     Biso  1.000000 C
   C303       1.0     0.817292      0.811687      0.626172     Biso  1.000000 C
   C304       1.0     0.862372      0.783679      0.606307     Biso  1.000000 C
   C305       1.0     0.772365      0.822115      0.393973     Biso  1.000000 C
   C306       1.0     0.700578      0.804673      0.387811     Biso  1.000000 C
   C307       1.0     0.649323      0.841782      0.397937     Biso  1.000000 C
   C308       1.0     0.575092      0.824015      0.392422     Biso  1.000000 C
   C309       1.0     0.482972      0.654586      0.579181     Biso  1.000000 C
   C310       1.0     0.536381      0.617273      0.588230     Biso  1.000000 C
   C311       1.0     0.549666      0.575084      0.565866     Biso  1.000000 C
   C312       1.0     0.596501      0.534283      0.577759     Biso  1.000000 C
   C313       1.0     0.057211      0.665968      0.568731     Biso  1.000000 C
   C314       1.0     0.078584      0.641717      0.541131     Biso  1.000000 C
   C315       1.0     0.789177      0.778332      0.650261     Biso  1.000000 C
   C316       1.0     0.039812      0.662112      0.514436     Biso  1.000000 C
   C317       1.0     0.998429      0.659875      0.279909     Biso  1.000000 C
   C318       1.0     0.945423      0.688990      0.264374     Biso  1.000000 C
   C319       1.0     0.871620      0.675971      0.274652     Biso  1.000000 C
   C320       1.0     0.820834      0.686523      0.248560     Biso  1.000000 C
   C321       1.0     0.368902      0.727715      0.354544     Biso  1.000000 C
   C322       1.0     0.360414      0.780514      0.365726     Biso  1.000000 C
   C323       1.0     0.291087      0.784246      0.382618     Biso  1.000000 C
   C324       1.0     0.266988      0.835525      0.391710     Biso  1.000000 C
   C325       1.0     0.026487      0.030912      0.234232     Biso  1.000000 C
   C326       1.0     0.987170      0.075974      0.247138     Biso  1.000000 C
   C327       1.0     0.935818      0.060481      0.271248     Biso  1.000000 C
   C328       1.0     0.880832      0.026961      0.258772     Biso  1.000000 C
   C329       1.0     0.063830      0.642492      0.485887     Biso  1.000000 C
   C330       1.0     0.730924      0.744977      0.640156     Biso  1.000000 C
   C331       1.0     0.468075      0.496670      0.750557     Biso  1.000000 C
   C332       1.0     0.424623      0.501195      0.777209     Biso  1.000000 C
   C333       1.0     0.079442      0.719666      0.697899     Biso  1.000000 C
   C334       1.0     0.158757      0.946321      0.527471     Biso  1.000000 C
   C335       1.0     0.218780      0.983035      0.528850     Biso  1.000000 C
   C336       1.0     0.293328      0.963554      0.526243     Biso  1.000000 C
   C337       1.0     0.348110      0.003166      0.532944     Biso  1.000000 C
   C338       1.0     0.425827      0.991299      0.741680     Biso  1.000000 C
   C339       1.0     0.375046      0.030401      0.754091     Biso  1.000000 C
   C340       1.0     0.373224      0.023430      0.786711     Biso  1.000000 C
   C341       1.0     0.331778      0.065360      0.801082     Biso  1.000000 C
   C342       1.0     0.857519      0.956547      0.762946     Biso  1.000000 C
   C343       1.0     0.789029      0.985246      0.761653     Biso  1.000000 C
   C344       1.0     0.726086      0.951094      0.759951     Biso  1.000000 C
   C345       1.0     0.658249      0.982052      0.758270     Biso  1.000000 C
   C346       1.0     0.619977      0.087374      0.562720     Biso  1.000000 C
   C347       1.0     0.672749      0.050876      0.551128     Biso  1.000000 C
   C348       1.0     0.659883      0.996295      0.555825     Biso  1.000000 C
   C349       1.0     0.716869      0.963689      0.541799     Biso  1.000000 C
   C350       1.0     0.190169      0.999650      0.627099     Biso  1.000000 C
   C351       1.0     0.196467      0.972680      0.654678     Biso  1.000000 C
   C352       1.0     0.186893      0.003180      0.682321     Biso  1.000000 C
   C353       1.0     0.199942      0.976076      0.711279     Biso  1.000000 C
   C354       1.0     0.790095      0.783478      0.777403     Biso  1.000000 C
   C355       1.0     0.718910      0.803032      0.773697     Biso  1.000000 C
   C356       1.0     0.690045      0.804728      0.743188     Biso  1.000000 C
   C357       1.0     0.619733      0.825981      0.744201     Biso  1.000000 C
   C358       1.0     0.322622      0.556184      0.787034     Biso  1.000000 C
   C359       1.0     0.357898      0.521049      0.768009     Biso  1.000000 C
   C360       1.0     0.646042      0.951215      0.093990     Biso  1.000000 C
   C361       1.0     0.654468      0.416561      0.016769     Biso  1.000000 C
   C362       1.0     0.599767      0.952271      0.120534     Biso  1.000000 C
   C363       1.0     0.472162      0.971021      0.138460     Biso  1.000000 C
   C364       1.0     0.427251      0.749447      0.232982     Biso  1.000000 C
   C365       1.0     0.498242      0.764556      0.238886     Biso  1.000000 C
   C366       1.0     0.390776      0.964263      0.403087     Biso  1.000000 C
   C367       1.0     0.458847      0.947976      0.416100     Biso  1.000000 C
   C368       1.0     0.456091      0.939705      0.449109     Biso  1.000000 C
   C369       1.0     0.412813      0.893646      0.455422     Biso  1.000000 C
   C370       1.0     0.361027      0.819987      0.668015     Biso  1.000000 C
   C371       1.0     0.341204      0.864556      0.687600     Biso  1.000000 C
   C372       1.0     0.360598      0.855002      0.719639     Biso  1.000000 C
   C373       1.0     0.310991      0.818942      0.733385     Biso  1.000000 C
   C374       1.0     0.412976      0.499733      0.650002     Biso  1.000000 C
   C375       1.0     0.451937      0.460446      0.668338     Biso  1.000000 C
   C376       1.0     0.390587      0.725368      0.259764     Biso  1.000000 C
   C377       1.0     0.501289      0.424112      0.653040     Biso  1.000000 C
   C378       1.0     0.790973      0.643917      0.788111     Biso  1.000000 C
   C379       1.0     0.818681      0.616852      0.815001     Biso  1.000000 C
   C380       1.0     0.869681      0.651618      0.832948     Biso  1.000000 C
   C381       1.0     0.831358      0.692700      0.846630     Biso  1.000000 C
   C382       1.0     0.037776      0.917670      0.990599     Biso  1.000000 C
   C383       1.0     0.021986      0.975144      0.991806     Biso  1.000000 C
   C384       1.0     0.081121      0.009134      0.985191     Biso  1.000000 C
   C385       1.0     0.063519      0.062009      0.993982     Biso  1.000000 C
   C386       1.0     0.648680      0.217417      0.903037     Biso  1.000000 C
   C387       1.0     0.656565      0.240370      0.873756     Biso  1.000000 C
   C388       1.0     0.589800      0.249420      0.859751     Biso  1.000000 C
   C389       1.0     0.578072      0.220001      0.831505     Biso  1.000000 C
   C390       1.0     0.550064      0.398677      0.672496     Biso  1.000000 C
   C391       1.0     0.125292      0.181230      0.728602     Biso  1.000000 C
   C392       1.0     0.326537      0.696655      0.252567     Biso  1.000000 C
   C393       1.0     0.863633      0.864523      0.283270     Biso  1.000000 C
   C394       1.0     0.429803      0.146551      0.360361     Biso  1.000000 C
   C395       1.0     0.409980      0.151153      0.392465     Biso  1.000000 C
   C396       1.0     0.360603      0.193072      0.395955     Biso  1.000000 C
   C397       1.0     0.329466      0.194004      0.426464     Biso  1.000000 C
   C398       1.0     0.001673      0.914647      0.439650     Biso  1.000000 C
   C399       1.0     0.014616      0.879424      0.464040     Biso  1.000000 C
   C400       1.0     0.076334      0.847067      0.459558     Biso  1.000000 C
   C401       1.0     0.093099      0.810744      0.483410     Biso  1.000000 C
   C402       1.0     0.421627      0.576060      0.419936     Biso  1.000000 C
   C403       1.0     0.435606      0.589890      0.386604     Biso  1.000000 C
   C404       1.0     0.433942      0.546835      0.365683     Biso  1.000000 C
   C405       1.0     0.489086      0.507803      0.369066     Biso  1.000000 C
   C406       1.0     0.874708      0.840788      0.253817     Biso  1.000000 C
   C407       1.0     0.465089      0.191328      0.489593     Biso  1.000000 C
   C408       1.0     0.486177      0.099421      0.492157     Biso  1.000000 C
   C409       1.0     0.532977      0.054735      0.488602     Biso  1.000000 C
   C410       1.0     0.657305      0.013733      0.283723     Biso  1.000000 C
   C411       1.0     0.609776      0.048566      0.267455     Biso  1.000000 C
   C412       1.0     0.614864      0.103036      0.276526     Biso  1.000000 C
   C413       1.0     0.561521      0.136380      0.264288     Biso  1.000000 C
   C414       1.0     0.077594      0.149179      0.337092     Biso  1.000000 C
   C415       1.0     0.074925      0.185473      0.361439     Biso  1.000000 C
   C416       1.0     0.018719      0.179329      0.384816     Biso  1.000000 C
   C417       1.0     0.948056      0.181200      0.371608     Biso  1.000000 C
   C418       1.0     0.960050      0.843566      0.319747     Biso  1.000000 C
   C419       1.0     0.887655      0.828968      0.307876     Biso  1.000000 C
   C420       1.0     0.507847      0.149307      0.479057     Biso  1.000000 C
   C421       1.0     0.119852      0.146445      0.703932     Biso  1.000000 C
   C422       1.0     0.135152      0.168419      0.674198     Biso  1.000000 C
   C423       1.0     0.123771      0.133631      0.647201     Biso  1.000000 C
   C424       1.0     0.696184      0.114980      0.796794     Biso  1.000000 C
   C425       1.0     0.759336      0.101248      0.813686     Biso  1.000000 C
   C426       1.0     0.040731      0.361828      0.897780     Biso  1.000000 C
   C427       1.0     0.101448      0.342556      0.917171     Biso  1.000000 C
   C428       1.0     0.079804      0.308915      0.943155     Biso  1.000000 C
   C429       1.0     0.046406      0.339913      0.966188     Biso  1.000000 C
   C430       1.0     0.546088      0.360940      0.920661     Biso  1.000000 C
   C431       1.0     0.503289      0.317073      0.929215     Biso  1.000000 C
   C432       1.0     0.440296      0.305301      0.910384     Biso  1.000000 C
   C433       1.0     0.389142      0.268042      0.920101     Biso  1.000000 C
   C434       1.0     0.988456      0.164121      0.796880     Biso  1.000000 C
   C435       1.0     0.933394      0.194154      0.780398     Biso  1.000000 C
   C436       1.0     0.710541      0.149183      0.771715     Biso  1.000000 C
   C437       1.0     0.961550      0.218602      0.752022     Biso  1.000000 C
   C438       1.0     0.890881      0.333550      0.546625     Biso  1.000000 C
   C439       1.0     0.828260      0.307450      0.542855     Biso  1.000000 C
   C440       1.0     0.798419      0.313513      0.513337     Biso  1.000000 C
   C441       1.0     0.724912      0.299116      0.508791     Biso  1.000000 C
   C442       1.0     0.793004      0.185787      0.308156     Biso  1.000000 C
   C443       1.0     0.858968      0.203452      0.299817     Biso  1.000000 C
   C444       1.0     0.858876      0.222114      0.270558     Biso  1.000000 C
   C445       1.0     0.930479      0.236756      0.260022     Biso  1.000000 C
   C446       1.0     0.006527      0.299043      0.056995     Biso  1.000000 C
   C447       1.0     0.027896      0.255089      0.040578     Biso  1.000000 C
   C448       1.0     0.088582      0.231573      0.056995     Biso  1.000000 C
   C449       1.0     0.098917      0.176917      0.049950     Biso  1.000000 C
   C450       1.0     0.907376      0.253060      0.739288     Biso  1.000000 C
   C451       1.0     0.751507      0.122052      0.747347     Biso  1.000000 C
   C452       1.0     0.574392      0.291978      0.575518     Biso  1.000000 C
   C453       1.0     0.513379      0.328524      0.582607     Biso  1.000000 C
   C454       1.0     0.702860      0.923251      0.666032     Biso  1.000000 C
   C455       1.0     0.660459      0.909362      0.638734     Biso  1.000000 C
   C456       1.0     0.603028      0.873682      0.644465     Biso  1.000000 C
   C457       1.0     0.570759      0.850090      0.617899     Biso  1.000000 C
   C458       1.0     0.703503      0.649740      0.448204     Biso  1.000000 C
   C459       1.0     0.708203      0.671370      0.416488     Biso  1.000000 C
   C460       1.0     0.695694      0.633716      0.391883     Biso  1.000000 C
   C461       1.0     0.715619      0.659444      0.363119     Biso  1.000000 C
   C462       1.0     0.676535      0.402680      0.207127     Biso  1.000000 C
   C463       1.0     0.683844      0.352954      0.220356     Biso  1.000000 C
   C464       1.0     0.615114      0.326609      0.223373     Biso  1.000000 C
   C465       1.0     0.633548      0.276024      0.234878     Biso  1.000000 C
   C466       1.0     0.934389      0.126965      0.093106     Biso  1.000000 C
   C467       1.0     0.890008      0.092363      0.074620     Biso  1.000000 C
   C468       1.0     0.928892      0.071713      0.046783     Biso  1.000000 C
   C469       1.0     0.872947      0.049914      0.027197     Biso  1.000000 C
   C470       1.0     0.779189      0.859501      0.015929     Biso  1.000000 C
   C471       1.0     0.404285      0.632715      0.034458     Biso  1.000000 C
   C472       1.0     0.410674      0.578611      0.025603     Biso  1.000000 C
   C473       1.0     0.382375      0.567924      0.996137     Biso  1.000000 C
   C474       1.0     0.390862      0.515314      0.985148     Biso  1.000000 C
   C475       1.0     0.110880      0.410563      0.814484     Biso  1.000000 C
   C476       1.0     0.129886      0.365487      0.795868     Biso  1.000000 C
   C477       1.0     0.147769      0.378597      0.764303     Biso  1.000000 C
   C478       1.0     0.176951      0.334877      0.748402     Biso  1.000000 C
   C479       1.0     0.422719      0.384701      0.560673     Biso  1.000000 C
   C480       1.0     0.476470      0.347808      0.555782     Biso  1.000000 C
   C481       1.0     0.523698      0.966302      0.112605     Biso  1.000000 C
   C482       1.0     0.612542      0.380582      0.029093     Biso  1.000000 C
   C483       1.0     0.779985      0.368582      0.291953     Biso  1.000000 C
   C484       1.0     0.517278      0.406590      0.997968     Biso  1.000000 C
   C485       1.0     0.689274      0.571619      0.606630     Biso  1.000000 C
   C486       1.0     0.960443      0.656680      0.600124     Biso  1.000000 C
   C487       1.0     0.991631      0.677583      0.448247     Biso  1.000000 C
   C488       1.0     0.026824      0.702934      0.325306     Biso  1.000000 C
   C489       1.0     0.721023      0.724122      0.272583     Biso  1.000000 C
   C490       1.0     0.452238      0.690354      0.325522     Biso  1.000000 C
   C491       1.0     0.201770      0.902714      0.370186     Biso  1.000000 C
   C492       1.0     0.077666      0.962859      0.259462     Biso  1.000000 C
   C493       1.0     0.696276      0.804085      0.118078     Biso  1.000000 C
   C494       1.0     0.722871      0.767276      0.099592     Biso  1.000000 C
   C495       1.0     0.790090      0.770075      0.090327     Biso  1.000000 C
   C496       1.0     0.834512      0.808204      0.099204     Biso  1.000000 C
   C497       1.0     0.482329      0.709235      0.538459     Biso  1.000000 C
   C498       1.0     0.808626      0.843357      0.117604     Biso  1.000000 C
   C499       1.0     0.250978      0.669597      0.111442     Biso  1.000000 C
   C500       1.0     0.281043      0.665975      0.138309     Biso  1.000000 C
   C501       1.0     0.322377      0.621670      0.144235     Biso  1.000000 C
   C502       1.0     0.330058      0.585080      0.122883     Biso  1.000000 C
   C503       1.0     0.302065      0.593475      0.095390     Biso  1.000000 C
   C504       1.0     0.261931      0.634389      0.089788     Biso  1.000000 C
   C505       1.0     0.119903      0.486893      0.115040     Biso  1.000000 C
   C506       1.0     0.061487      0.508443      0.104569     Biso  1.000000 C
   C507       1.0     0.030754      0.492365      0.078347     Biso  1.000000 C
   C508       1.0     0.060155      0.454269      0.063589     Biso  1.000000 C
   C509       1.0     0.119903      0.431024      0.074728     Biso  1.000000 C
   C510       1.0     0.148167      0.443074      0.102091     Biso  1.000000 C
   C511       1.0     0.742019      0.839808      0.128398     Biso  1.000000 C
   C512       1.0     0.911790      0.502610      0.879423     Biso  1.000000 C
   C513       1.0     0.539208      0.753833      0.418966     Biso  1.000000 C
   C514       1.0     0.890227      0.780265      0.555373     Biso  1.000000 C
   C515       1.0     0.714368      0.971321      0.937166     Biso  1.000000 C
   C516       1.0     0.619202      0.154578      0.983231     Biso  1.000000 C
   C517       1.0     0.769130      0.312589      0.086880     Biso  1.000000 C
   C518       1.0     0.791397      0.525241      0.077550     Biso  1.000000 C
   C519       1.0     0.096952      0.608501      0.053742     Biso  1.000000 C
   C520       1.0     0.179926      0.458911      0.974656     Biso  1.000000 C
   C521       1.0     0.342776      0.206909      0.012482     Biso  1.000000 C
   C522       1.0     0.382860      0.043368      0.931671     Biso  1.000000 C
   C523       1.0     0.235213      0.808006      0.863048     Biso  1.000000 C
   C524       1.0     0.010099      0.732042      0.794683     Biso  1.000000 C
   C525       1.0     0.135801      0.770236      0.665063     Biso  1.000000 C
   C526       1.0     0.105562      0.888715      0.558885     Biso  1.000000 C
   C527       1.0     0.803850      0.849282      0.442451     Biso  1.000000 C
   C528       1.0     0.428961      0.017584      0.572092     Biso  1.000000 C
   C529       1.0     0.217494      0.037550      0.808408     Biso  1.000000 C
   C530       1.0     0.939442      0.018409      0.764066     Biso  1.000000 C
   C531       1.0     0.614098      0.045751      0.730304     Biso  1.000000 C
   C532       1.0     0.586570      0.113372      0.610896     Biso  1.000000 C
   C533       1.0     0.810714      0.958941      0.574592     Biso  1.000000 C
   C534       1.0     0.088322      0.026190      0.600576     Biso  1.000000 C
   C535       1.0     0.134224      0.919296      0.739439     Biso  1.000000 C
   C536       1.0     0.876734      0.811069      0.742111     Biso  1.000000 C
   C537       1.0     0.518447      0.802118      0.768311     Biso  1.000000 C
   C538       1.0     0.353785      0.636593      0.801750     Biso  1.000000 C
   C539       1.0     0.529491      0.575764      0.747842     Biso  1.000000 C
   C540       1.0     0.637963      0.694710      0.655906     Biso  1.000000 C
   C541       1.0     0.464456      0.977530      0.694042     Biso  1.000000 C
   C542       1.0     0.943805      0.921135      0.857252     Biso  1.000000 C
   C543       1.0     0.946071      0.467288      0.863350     Biso  1.000000 C
   C544       1.0     0.861775      0.474243      0.824869     Biso  1.000000 C
   C545       1.0     0.037970      0.254201      0.531672     Biso  1.000000 C
   C546       1.0     0.975034      0.227955      0.531306     Biso  1.000000 C
   C547       1.0     0.243430      0.312837      0.383286     Biso  1.000000 C
   C548       1.0     0.268575      0.303853      0.355320     Biso  1.000000 C
   C549       1.0     0.226655      0.297695      0.332567     Biso  1.000000 C
   C550       1.0     0.157190      0.298316      0.334614     Biso  1.000000 C
   C551       1.0     0.126951      0.298718      0.363205     Biso  1.000000 C
   C552       1.0     0.172113      0.307252      0.387121     Biso  1.000000 C
   C553       1.0     0.307705      0.081596      0.224730     Biso  1.000000 C
   C554       1.0     0.350049      0.115572      0.212341     Biso  1.000000 C
   C555       1.0     0.417483      0.104125      0.205877     Biso  1.000000 C
   C556       1.0     0.444414      0.057053      0.210919     Biso  1.000000 C
   C557       1.0     0.078436      0.252753      0.556860     Biso  1.000000 C
   C558       1.0     0.400865      0.018418      0.221520     Biso  1.000000 C
   C559       1.0     0.554912      0.070137      0.052514     Biso  1.000000 C
   C560       1.0     0.494797      0.090053      0.066152     Biso  1.000000 C
   C561       1.0     0.430665      0.076552      0.054044     Biso  1.000000 C
   C562       1.0     0.424444      0.038782      0.034760     Biso  1.000000 C
   C563       1.0     0.484738      0.023460      0.020410     Biso  1.000000 C
   C564       1.0     0.548798      0.037868      0.029438     Biso  1.000000 C
   C565       1.0     0.350820      0.818006      0.105366     Biso  1.000000 C
   C566       1.0     0.368943      0.813061      0.134216     Biso  1.000000 C
   C567       1.0     0.406336      0.772239      0.142231     Biso  1.000000 C
   C568       1.0     0.430711      0.736190      0.123529     Biso  1.000000 C
   C569       1.0     0.407720      0.740807      0.094291     Biso  1.000000 C
   C570       1.0     0.370565      0.782696      0.085242     Biso  1.000000 C
   C571       1.0     0.332631      0.034374      0.228242     Biso  1.000000 C
   C572       1.0     0.926376      0.455106      0.834952     Biso  1.000000 C
   C573       1.0     0.055935      0.221504      0.578492     Biso  1.000000 C
   C574       1.0     0.957207      0.194508      0.552184     Biso  1.000000 C
   C575       1.0     0.824687      0.509558      0.841524     Biso  1.000000 C
   C576       1.0     0.846985      0.518300      0.869641     Biso  1.000000 C
   C577       1.0     0.071368      0.579554      0.792334     Biso  1.000000 C
   C578       1.0     0.129171      0.608775      0.800091     Biso  1.000000 C
   C579       1.0     0.140445      0.625796      0.829091     Biso  1.000000 C
   C580       1.0     0.085423      0.616206      0.849366     Biso  1.000000 C
   C581       1.0     0.027222      0.587024      0.841890     Biso  1.000000 C
   C582       1.0     0.022037      0.566772      0.814096     Biso  1.000000 C
   C583       1.0     0.454907      0.560639      0.890971     Biso  1.000000 C
   C584       1.0     0.507995      0.526926      0.900236     Biso  1.000000 C
   C585       1.0     0.514374      0.480099      0.886360     Biso  1.000000 C
   C586       1.0     0.468886      0.464127      0.863393     Biso  1.000000 C
   C587       1.0     0.999495      0.192472      0.576790     Biso  1.000000 C
   C588       1.0     0.417411      0.499302      0.854279     Biso  1.000000 C
   C589       1.0     0.429874      0.240944      0.680791     Biso  1.000000 C
   C590       1.0     0.449599      0.232081      0.653127     Biso  1.000000 C
   C591       1.0     0.411818      0.199826      0.635200     Biso  1.000000 C
   C592       1.0     0.356791      0.172834      0.645822     Biso  1.000000 C
   C593       1.0     0.341424      0.181200      0.674047     Biso  1.000000 C
   C594       1.0     0.368509      0.219471      0.689884     Biso  1.000000 C
   C595       1.0     0.089230      0.135667      0.480953     Biso  1.000000 C
   C596       1.0     0.086127      0.089647      0.495928     Biso  1.000000 C
   C597       1.0     0.026043      0.060313      0.495152     Biso  1.000000 C
   C598       1.0     0.969359      0.073376      0.478497     Biso  1.000000 C
   C599       1.0     0.974207      0.118408      0.463889     Biso  1.000000 C
   C600       1.0     0.031009      0.149676      0.464966     Biso  1.000000 C
   C601       1.0     0.413180      0.547083      0.867120     Biso  1.000000 C
   C602       1.0     0.574474      0.013219      0.847643     Biso  1.000000 C
   C603       1.0     0.549946      0.806705      0.872420     Biso  1.000000 C
   C604       1.0     0.638692      0.529207      0.846199     Biso  1.000000 C
   C605       1.0     0.962489      0.430658      0.499677     Biso  1.000000 C
   C606       1.0     0.078947      0.497621      0.607169     Biso  1.000000 C
   C607       1.0     0.277884      0.590964      0.602515     Biso  1.000000 C
   C608       1.0     0.316279      0.477537      0.494743     Biso  1.000000 C
   C609       1.0     0.203372      0.631395      0.379106     Biso  1.000000 C
   C610       1.0     0.191955      0.582478      0.256683     Biso  1.000000 C
   C611       1.0     0.931061      0.665069      0.143782     Biso  1.000000 C
   C612       1.0     0.686814      0.746815      0.196009     Biso  1.000000 C
   C613       1.0     0.779909      0.962903      0.172546     Biso  1.000000 C
   C614       1.0     0.067392      0.961920      0.138051     Biso  1.000000 C
   C615       1.0     0.618630      0.501561      0.442623     Biso  1.000000 C
   C616       1.0     0.834481      0.379573      0.393757     Biso  1.000000 C
   C617       1.0     0.142803      0.433633      0.335045     Biso  1.000000 C
   C618       1.0     0.661388      0.367694      0.305268     Biso  1.000000 C
   C619       1.0     0.281309      0.118745      0.441331     Biso  1.000000 C
   C620       1.0     0.069602      0.978609      0.417113     Biso  1.000000 C
   C621       1.0     0.189848      0.765306      0.501831     Biso  1.000000 C
   C622       1.0     0.378461      0.610935      0.463394     Biso  1.000000 C
   C623       1.0     0.522729      0.433264      0.393305     Biso  1.000000 C
   C624       1.0     0.448538      0.279913      0.474942     Biso  1.000000 C
   C625       1.0     0.601896      0.017006      0.453181     Biso  1.000000 C
   C626       1.0     0.689835      0.003022      0.334118     Biso  1.000000 C
   C627       1.0     0.446828      0.159442      0.267455     Biso  1.000000 C
   C628       1.0     0.193645      0.123098      0.327849     Biso  1.000000 C
   C629       1.0     0.891105      0.102334      0.384191     Biso  1.000000 C
   C630       1.0     0.930342      0.896771      0.358142     Biso  1.000000 C
   C631       1.0     0.451228      0.227523      0.338751     Biso  1.000000 C
   C632       1.0     0.971196      0.821727      0.222618     Biso  1.000000 C
   C633       1.0     0.074864      0.395132      0.214733     Biso  1.000000 C
   C634       1.0     0.535605      0.445333      0.090995     Biso  1.000000 C
   C635       1.0     0.545353      0.373020      0.017911     Biso  1.000000 C
   C636       1.0     0.911152      0.809995      0.090090     Biso  1.000000 C
   C637       1.0     0.210782      0.714078      0.102802     Biso  1.000000 C
   C638       1.0     0.372796      0.538516      0.128420     Biso  1.000000 C
   C639       1.0     0.146707      0.503878      0.143071     Biso  1.000000 C
   C640       1.0     0.030284      0.435106      0.036268     Biso  1.000000 C
   C641       1.0     0.943499      0.515523      0.908984     Biso  1.000000 C
   C642       1.0     0.834017      0.465029      0.795372     Biso  1.000000 C
   C643       1.0     0.069418      0.555742      0.762730     Biso  1.000000 C
   C644       1.0     0.091359      0.633113      0.879617     Biso  1.000000 C
   C645       1.0     0.445384      0.610621      0.905084     Biso  1.000000 C
   C646       1.0     0.478496      0.415307      0.849021     Biso  1.000000 C
   C647       1.0     0.285922      0.325012      0.097459     Biso  1.000000 C
   C648       1.0     0.467447      0.276533      0.699558     Biso  1.000000 C
   C649       1.0     0.151433      0.170890      0.481083     Biso  1.000000 C
   C650       1.0     0.901527      0.044388      0.481578     Biso  1.000000 C
   C651       1.0     0.894035      0.167326      0.551322     Biso  1.000000 C
   C652       1.0     0.143813      0.280553      0.560199     Biso  1.000000 C
   C653       1.0     0.288668      0.319186      0.408150     Biso  1.000000 C
   C654       1.0     0.113620      0.289241      0.309017     Biso  1.000000 C
   C655       1.0     0.232697      0.094662      0.231732     Biso  1.000000 C
   C656       1.0     0.519115      0.045269      0.204542     Biso  1.000000 C
   C657       1.0     0.624025      0.087754      0.061822     Biso  1.000000 C
   C658       1.0     0.354846      0.027462      0.022264     Biso  1.000000 C
   C659       1.0     0.316707      0.863189      0.092805     Biso  1.000000 C
   C660       1.0     0.469039      0.692254      0.133720     Biso  1.000000 C
   C661       1.0     0.322679      0.133280      0.629211     Biso  1.000000 C
   C662       1.0     0.250488      0.748727      0.223610     Biso  1.000000 C
   C663       1.0     0.481660      0.850225      0.249400     Biso  1.000000 C
   C664       1.0     0.431732      0.972362      0.353510     Biso  1.000000 C
   C665       1.0     0.657183      0.391272      0.929689     Biso  1.000000 C
   C666       1.0     0.287010      0.279504      0.890842     Biso  1.000000 C
   C667       1.0     0.081861      0.168620      0.829005     Biso  1.000000 C
   C668       1.0     0.976524      0.300560      0.708779     Biso  1.000000 C
   C669       1.0     0.955160      0.349924      0.588575     Biso  1.000000 C
   C670       1.0     0.665287      0.257768      0.467961     Biso  1.000000 C
   C671       1.0     0.726142      0.175861      0.351010     Biso  1.000000 C
   C672       1.0     0.901895      0.290791      0.222920     Biso  1.000000 C
   C673       1.0     0.971329      0.329135      0.101811     Biso  1.000000 C
   C674       1.0     0.152382      0.107805      0.073133     Biso  1.000000 C
   C675       1.0     0.400819      0.039487      0.130273     Biso  1.000000 C
   C676       1.0     0.632629      0.924468      0.043788     Biso  1.000000 C
   C677       1.0     0.924998      0.326386      0.970196     Biso  1.000000 C
   C678       1.0     0.430538      0.833573      0.969765     Biso  1.000000 C
   C679       1.0     0.786548      0.691234      0.966016     Biso  1.000000 C
   C680       1.0     0.674765      0.488929      0.981529     Biso  1.000000 C
   C681       1.0     0.503917      0.330432      0.030214     Biso  1.000000 C
   C682       1.0     0.420626      0.239515      0.169530     Biso  1.000000 C
   C683       1.0     0.348804      0.370845      0.263879     Biso  1.000000 C
   C684       1.0     0.503999      0.594696      0.219300     Biso  1.000000 C
   C685       1.0     0.766568      0.525310      0.174507     Biso  1.000000 C
   C686       1.0     0.989849      0.529159      0.288075     Biso  1.000000 C
   C687       1.0     0.960871      0.547449      0.412201     Biso  1.000000 C
   C688       1.0     0.728561      0.452175      0.542790     Biso  1.000000 C
   C689       1.0     0.800854      0.383104      0.656164     Biso  1.000000 C
   C690       1.0     0.676331      0.337515      0.799488     Biso  1.000000 C
   C691       1.0     0.052428      0.757404      0.002097     Biso  1.000000 C
   C692       1.0     0.941151      0.325319      0.880479     Biso  1.000000 C
   C693       1.0     0.839396      0.142717      0.842709     Biso  1.000000 C
   C694       1.0     0.780077      0.149274      0.699321     Biso  1.000000 C
   C695       1.0     0.389260      0.850283      0.499440     Biso  1.000000 C
   C696       1.0     0.386213      0.864556      0.624708     Biso  1.000000 C
   C697       1.0     0.282028      0.735182      0.731510     Biso  1.000000 C
   C698       1.0     0.335193      0.541981      0.682967     Biso  1.000000 C
   C699       1.0     0.643806      0.451473      0.675685     Biso  1.000000 C
   C700       1.0     0.802528      0.587953      0.745688     Biso  1.000000 C
   C701       1.0     0.852344      0.754787      0.879229     Biso  1.000000 C
   C702       1.0     0.048019      0.861438      0.950524     Biso  1.000000 C
   C703       1.0     0.988283      0.125671      0.980904     Biso  1.000000 C
   C704       1.0     0.741014      0.162308      0.909975     Biso  1.000000 C
   C705       1.0     0.499543      0.193711      0.797505     Biso  1.000000 C
   C706       1.0     0.207603      0.203528      0.763506     Biso  1.000000 C
   C707       1.0     0.004399      0.115309      0.649421     Biso  1.000000 C
   C708       1.0     0.816680      0.951182      0.671139     Biso  1.000000 C
   C709       1.0     0.620294      0.842875      0.572739     Biso  1.000000 C
   C710       1.0     0.705253      0.677887      0.497458     Biso  1.000000 C
   C711       1.0     0.753018      0.609806      0.324681     Biso  1.000000 C
   C712       1.0     0.645414      0.465640      0.240135     Biso  1.000000 C
   C713       1.0     0.697925      0.205846      0.220809     Biso  1.000000 C
   C714       1.0     0.889283      0.121409      0.138805     Biso  1.000000 C
   C715       1.0     0.695301      0.816618      0.987928     Biso  1.000000 C
   C716       1.0     0.456387      0.690693      0.002894     Biso  1.000000 C
   C717       1.0     0.358368      0.472986      0.941626     Biso  1.000000 C
   C718       1.0     0.155077      0.461188      0.853050     Biso  1.000000 C
   C719       1.0     0.220158      0.319043      0.699881     Biso  1.000000 C
   C720       1.0     0.329543      0.399153      0.593531     Biso  1.000000 C
   C721       1.0     0.671233      0.252340      0.598012     Biso  1.000000 C
   C722       1.0     0.471800      0.412149      0.092137     Biso  1.000000 C
   C723       1.0     0.418743      0.416484      0.070699     Biso  1.000000 C
   C724       1.0     0.105337      0.075455      0.909802     Biso  1.000000 C
   C725       1.0     0.351223      0.355688      0.094421     Biso  1.000000 C
   C726       1.0     0.770059      0.550230      0.282042     Biso  1.000000 C
   C727       1.0     0.741826      0.182958      0.197496     Biso  1.000000 C
   C728       1.0     0.779082      0.141833      0.205533     Biso  1.000000 C
   C729       1.0     0.829551      0.121526      0.187693     Biso  1.000000 C
   C730       1.0     0.842723      0.144965      0.160739     Biso  1.000000 C
   C731       1.0     0.810484      0.189768      0.154340     Biso  1.000000 C
   C732       1.0     0.760418      0.207392      0.171900     Biso  1.000000 C
   C733       1.0     0.637126      0.782221      0.991332     Biso  1.000000 C
   C734       1.0     0.626235      0.759220      0.017653     Biso  1.000000 C
   C735       1.0     0.569003      0.728117      0.022177     Biso  1.000000 C
   C736       1.0     0.521882      0.719272      0.999239     Biso  1.000000 C
   C737       1.0     0.539321      0.735956      0.972307     Biso  1.000000 C
   C738       1.0     0.744081      0.514338      0.261573     Biso  1.000000 C
   C739       1.0     0.597185      0.766691      0.967502     Biso  1.000000 C
   C740       1.0     0.255913      0.507745      0.917645     Biso  1.000000 C
   C741       1.0     0.204719      0.503147      0.895841     Biso  1.000000 C
   C742       1.0     0.213538      0.468443      0.873649     Biso  1.000000 C
   C743       1.0     0.266784      0.434437      0.874618     Biso  1.000000 C
   C744       1.0     0.318218      0.438341      0.895884     Biso  1.000000 C
   C745       1.0     0.238388      0.340436      0.671247     Biso  1.000000 C
   C746       1.0     0.230865      0.391236      0.664050     Biso  1.000000 C
   C747       1.0     0.261553      0.410636      0.638734     Biso  1.000000 C
   C748       1.0     0.295716      0.380373      0.619299     Biso  1.000000 C
   C749       1.0     0.299534      0.328433      0.625957     Biso  1.000000 C
   C750       1.0     0.270836      0.308053      0.651769     Biso  1.000000 C
   C751       1.0     0.664986      0.228101      0.651984     Biso  1.000000 C
   C752       1.0     0.308445      0.473809      0.917494     Biso  1.000000 C
   C753       1.0     0.672784      0.502039      0.261789     Biso  1.000000 C
   C754       1.0     0.631512      0.521637      0.283335     Biso  1.000000 C
   C755       1.0     0.657928      0.558220      0.302898     Biso  1.000000 C
   C756       1.0     0.021603      0.789600      0.917430     Biso  1.000000 C
   C757       1.0     0.974916      0.763431      0.899891     Biso  1.000000 C
   C758       1.0     0.921130      0.133522      0.964464     Biso  1.000000 C
   C759       1.0     0.878938      0.173360      0.969743     Biso  1.000000 C
   C760       1.0     0.820533      0.184636      0.951666     Biso  1.000000 C
   C761       1.0     0.804773      0.153105      0.929495     Biso  1.000000 C
   C762       1.0     0.844428      0.109596      0.924755     Biso  1.000000 C
   C763       1.0     0.902389      0.101533      0.942229     Biso  1.000000 C
   C764       1.0     0.424071      0.194227      0.787616     Biso  1.000000 C
   C765       1.0     0.377266      0.220001      0.803344     Biso  1.000000 C
   C766       1.0     0.307592      0.223945      0.794360     Biso  1.000000 C
   C767       1.0     0.283126      0.198733      0.770918     Biso  1.000000 C
   C768       1.0     0.333860      0.169662      0.754026     Biso  1.000000 C
   C769       1.0     0.404749      0.167662      0.762752     Biso  1.000000 C
   C770       1.0     0.954941      0.074417      0.656035     Biso  1.000000 C
   C771       1.0     0.969782      0.037590      0.675900     Biso  1.000000 C
   C772       1.0     0.923380      0.997461      0.679930     Biso  1.000000 C
   C773       1.0     0.858815      0.995780      0.665666     Biso  1.000000 C
   C774       1.0     0.841147      0.031358      0.646749     Biso  1.000000 C
   C775       1.0     0.887201      0.073032      0.642461     Biso  1.000000 C
   C776       1.0     0.648736      0.802557      0.554015     Biso  1.000000 C
   C777       1.0     0.644332      0.752261      0.563797     Biso  1.000000 C
   C778       1.0     0.665476      0.714813      0.545031     Biso  1.000000 C
   C779       1.0     0.690800      0.722042      0.517732     Biso  1.000000 C
   C780       1.0     0.692770      0.770382      0.507541     Biso  1.000000 C
   C781       1.0     0.672111      0.809618      0.525769     Biso  1.000000 C
   C782       1.0     0.726872      0.573636      0.302489     Biso  1.000000 C
   C783       1.0     0.686493      0.198912      0.675771     Biso  1.000000 C
   C784       1.0     0.998240      0.830382      0.933503     Biso  1.000000 C
   C785       1.0     0.752329      0.179914      0.675814     Biso  1.000000 C
   C786       1.0     0.768864      0.213598      0.625655     Biso  1.000000 C
   C787       1.0     0.898684      0.345553      0.180195     Biso  1.000000 C
   C788       1.0     0.917741      0.355070      0.150483     Biso  1.000000 C
   C789       1.0     0.951695      0.319570      0.133332     Biso  1.000000 C
   C790       1.0     0.962071      0.271891      0.146174     Biso  1.000000 C
   C791       1.0     0.942213      0.263294      0.173322     Biso  1.000000 C
   C792       1.0     0.215896      0.091069      0.089013     Biso  1.000000 C
   C793       1.0     0.225302      0.040123      0.092546     Biso  1.000000 C
   C794       1.0     0.283845      0.021998      0.105991     Biso  1.000000 C
   C795       1.0     0.334631      0.056314      0.117195     Biso  1.000000 C
   C796       1.0     0.321214      0.108047      0.115363     Biso  1.000000 C
   C797       1.0     0.264329      0.124084      0.101811     Biso  1.000000 C
   C798       1.0     0.579108      0.903328      0.024547     Biso  1.000000 C
   C799       1.0     0.912398      0.298188      0.191377     Biso  1.000000 C
   C800       1.0     0.517334      0.885784      0.037798     Biso  1.000000 C
   C801       1.0     0.479180      0.860228      0.989458     Biso  1.000000 C
   C802       1.0     0.535957      0.881413      0.977026     Biso  1.000000 C
   C803       1.0     0.585217      0.904534      0.994198     Biso  1.000000 C
   C804       1.0     0.981648      0.741165      0.993206     Biso  1.000000 C
   C805       1.0     0.924641      0.763756      0.005803     Biso  1.000000 C
   C806       1.0     0.858055      0.744352      0.998464     Biso  1.000000 C
   C807       1.0     0.854885      0.709045      0.976444     Biso  1.000000 C
   C808       1.0     0.913117      0.687294      0.964443     Biso  1.000000 C
   C809       1.0     0.977565      0.702119      0.973255     Biso  1.000000 C
   C810       1.0     0.631231      0.448838      0.995749     Biso  1.000000 C
   C811       1.0     0.361160      0.388473      0.072465     Biso  1.000000 C
   C812       1.0     0.562215      0.442716      0.986010     Biso  1.000000 C
   C813       1.0     0.467590      0.862586      0.019894     Biso  1.000000 C
   C814       1.0     0.649573      0.191562      0.428295     Biso  1.000000 C
   C815       1.0     0.664501      0.172403      0.400092     Biso  1.000000 C
   C816       1.0     0.710423      0.195948      0.380054     Biso  1.000000 C
   C817       1.0     0.869992      0.189011      0.849108     Biso  1.000000 C
   C818       1.0     0.929229      0.189976      0.866646     Biso  1.000000 C
   C819       1.0     0.948949      0.234976      0.879918     Biso  1.000000 C
   C820       1.0     0.913581      0.278181      0.871990     Biso  1.000000 C
   C821       1.0     0.857284      0.276916      0.853331     Biso  1.000000 C
   C822       1.0     0.835670      0.231759      0.840920     Biso  1.000000 C
   C823       1.0     0.857753      0.343568      0.958604     Biso  1.000000 C
   C824       1.0     0.796832      0.318915      0.967826     Biso  1.000000 C
   C825       1.0     0.728628      0.336777      0.959767     Biso  1.000000 C
   C826       1.0     0.723841      0.377914      0.941109     Biso  1.000000 C
   C827       1.0     0.784180      0.400095      0.930228     Biso  1.000000 C
   C828       1.0     0.849128      0.383085      0.940139     Biso  1.000000 C
   C829       1.0     0.232957      0.251964      0.873799     Biso  1.000000 C
   C830       1.0     0.188561      0.274877      0.853546     Biso  1.000000 C
   C831       1.0     0.136398      0.247611      0.839412     Biso  1.000000 C
   C832       1.0     0.132514      0.197480      0.844001     Biso  1.000000 C
   C833       1.0     0.176440      0.176716      0.865073     Biso  1.000000 C
   C834       1.0     0.225440      0.204015      0.880780     Biso  1.000000 C
   C835       1.0     0.976693      0.312084      0.677861     Biso  1.000000 C
   C836       1.0     0.998954      0.356693      0.667282     Biso  1.000000 C
   C837       1.0     0.991554      0.369533      0.639208     Biso  1.000000 C
   C838       1.0     0.963571      0.334909      0.619170     Biso  1.000000 C
   C839       1.0     0.939253      0.289011      0.628327     Biso  1.000000 C
   C840       1.0     0.945484      0.279818      0.658082     Biso  1.000000 C
   C841       1.0     0.680338      0.237249      0.437970     Biso  1.000000 C
   C842       1.0     0.724770      0.259533      0.418212     Biso  1.000000 C
   C843       1.0     0.739325      0.240447      0.390095     Biso  1.000000 C
   C844       1.0     0.796031      0.189069      0.650196     Biso  1.000000 C
   C845       1.0     0.930133      0.843540      0.933072     Biso  1.000000 C
   C846       1.0     0.703452      0.233963      0.625785     Biso  1.000000 C
   C847       1.0     0.882690      0.816482      0.917279     Biso  1.000000 C
   C848       1.0     0.803324      0.659919      0.151496     Biso  1.000000 C
   C849       1.0     0.851782      0.957911      0.163324     Biso  1.000000 C
   C850       1.0     0.874856      0.971080      0.134733     Biso  1.000000 C
   C851       1.0     0.943279      0.974131      0.125856     Biso  1.000000 C
   C852       1.0     0.992718      0.961211      0.147919     Biso  1.000000 C
   C853       1.0     0.972640      0.943996      0.175886     Biso  1.000000 C
   C854       1.0     0.901675      0.941781      0.183211     Biso  1.000000 C
   C855       1.0     0.675025      0.470431      0.431420     Biso  1.000000 C
   C856       1.0     0.712235      0.486714      0.407633     Biso  1.000000 C
   C857       1.0     0.762868      0.456638      0.394253     Biso  1.000000 C
   C858       1.0     0.781695      0.412296      0.407310     Biso  1.000000 C
   C859       1.0     0.747552      0.398988      0.432971     Biso  1.000000 C
   C860       1.0     0.747215      0.727671      0.177071     Biso  1.000000 C
   C861       1.0     0.690254      0.424032      0.443184     Biso  1.000000 C
   C862       1.0     0.537692      0.340447      0.308543     Biso  1.000000 C
   C863       1.0     0.488800      0.307654      0.318411     Biso  1.000000 C
   C864       1.0     0.505106      0.260615      0.328861     Biso  1.000000 C
   C865       1.0     0.574943      0.248755      0.331964     Biso  1.000000 C
   C866       1.0     0.627577      0.281920      0.324056     Biso  1.000000 C
   C867       1.0     0.224613      0.086369      0.435104     Biso  1.000000 C
   C868       1.0     0.210047      0.046855      0.453698     Biso  1.000000 C
   C869       1.0     0.163156      0.009049      0.447299     Biso  1.000000 C
   C870       1.0     0.122455      0.015669      0.422801     Biso  1.000000 C
   C871       1.0     0.132228      0.054805      0.403949     Biso  1.000000 C
   C872       1.0     0.182748      0.089593      0.410477     Biso  1.000000 C
   C873       1.0     0.244247      0.727137      0.493773     Biso  1.000000 C
   C874       1.0     0.608882      0.328908      0.313585     Biso  1.000000 C
   C875       1.0     0.267468      0.693007      0.513531     Biso  1.000000 C
   C876       1.0     0.809101      0.754078      0.178859     Biso  1.000000 C
   C877       1.0     0.865889      0.686764      0.154254     Biso  1.000000 C
   C878       1.0     0.399186      0.355801      0.116354     Biso  1.000000 C
   C879       1.0     0.458740      0.382833      0.115708     Biso  1.000000 C
   C880       1.0     0.090103      0.409525      0.244703     Biso  1.000000 C
   C881       1.0     0.040425      0.404120      0.266206     Biso  1.000000 C
   C882       1.0     0.056078      0.411795      0.296176     Biso  1.000000 C
   C883       1.0     0.122756      0.427361      0.304644     Biso  1.000000 C
   C884       1.0     0.171893      0.427954      0.281999     Biso  1.000000 C
   C885       1.0     0.158164      0.420333      0.252697     Biso  1.000000 C
   C886       1.0     0.991187      0.453703      0.526027     Biso  1.000000 C
   C887       1.0     0.059369      0.447628      0.531242     Biso  1.000000 C
   C888       1.0     0.090072      0.461480      0.557054     Biso  1.000000 C
   C889       1.0     0.052357      0.489061      0.577565     Biso  1.000000 C
   C890       1.0     0.869298      0.732641      0.168043     Biso  1.000000 C
   C891       1.0     0.985920      0.506689      0.569335     Biso  1.000000 C
   C892       1.0     0.284243      0.560595      0.574118     Biso  1.000000 C
   C893       1.0     0.226318      0.544104      0.556709     Biso  1.000000 C
   C894       1.0     0.240985      0.516846      0.532814     Biso  1.000000 C
   C895       1.0     0.306245      0.507489      0.522020     Biso  1.000000 C
   C896       1.0     0.362706      0.523618      0.538265     Biso  1.000000 C
   C897       1.0     0.350631      0.549912      0.563496     Biso  1.000000 C
   C898       1.0     0.206924      0.618505      0.347111     Biso  1.000000 C
   C899       1.0     0.225746      0.568899      0.337867     Biso  1.000000 C
   C900       1.0     0.222613      0.558139      0.308350     Biso  1.000000 C
   C901       1.0     0.205383      0.592945      0.287450     Biso  1.000000 C
   C902       1.0     0.198309      0.641988      0.295573     Biso  1.000000 C
   C903       1.0     0.200111      0.655109      0.325435     Biso  1.000000 C
   C904       1.0     0.952124      0.483995      0.545160     Biso  1.000000 C
   C905       1.0     0.306796      0.652572      0.502025     Biso  1.000000 C
   C906       1.0     0.744724      0.681582      0.164337     Biso  1.000000 C
   C907       1.0     0.317381      0.691552      0.454474     Biso  1.000000 C
   C908       1.0     0.145783      0.784019      0.250930     Biso  1.000000 C
   C909       1.0     0.078467      0.799600      0.250779     Biso  1.000000 C
   C910       1.0     0.468932      0.881943      0.275427     Biso  1.000000 C
   C911       1.0     0.494011      0.930422      0.276871     Biso  1.000000 C
   C912       1.0     0.483048      0.960312      0.301606     Biso  1.000000 C
   C913       1.0     0.445726      0.942721      0.325823     Biso  1.000000 C
   C914       1.0     0.420540      0.893481      0.323690     Biso  1.000000 C
   C915       1.0     0.431773      0.863401      0.298718     Biso  1.000000 C
   C916       1.0     0.388372      0.856259      0.531823     Biso  1.000000 C
   C917       1.0     0.432309      0.887856      0.547056     Biso  1.000000 C
   C918       1.0     0.380313      0.862176      0.591979     Biso  1.000000 C
   C919       1.0     0.337744      0.827787      0.577350     Biso  1.000000 C
   C920       1.0     0.341597      0.825649      0.546690     Biso  1.000000 C
   C921       1.0     0.297324      0.686381      0.718066     Biso  1.000000 C
   C922       1.0     0.354872      0.678204      0.699644     Biso  1.000000 C
   C923       1.0     0.367600      0.632839      0.687040     Biso  1.000000 C
   C924       1.0     0.325919      0.591732      0.694020     Biso  1.000000 C
   C925       1.0     0.273148      0.599831      0.714920     Biso  1.000000 C
   C926       1.0     0.257128      0.646172      0.725241     Biso  1.000000 C
   C927       1.0     0.686339      0.487083      0.695313     Biso  1.000000 C
   C928       1.0     0.661332      0.505442      0.720673     Biso  1.000000 C
   C929       1.0     0.700691      0.538063      0.737478     Biso  1.000000 C
   C930       1.0     0.763179      0.553808      0.727180     Biso  1.000000 C
   C931       1.0     0.788141      0.536794      0.700872     Biso  1.000000 C
   C932       1.0     0.750379      0.501444      0.686113     Biso  1.000000 C
   C933       1.0     0.335376      0.652298      0.473542     Biso  1.000000 C
   C934       1.0     0.906855      0.777568      0.899547     Biso  1.000000 C
   C935       1.0     0.180630      0.772926      0.225333     Biso  1.000000 C
   C936       1.0     0.148478      0.780028      0.198810     Biso  1.000000 C
   C937       1.0     0.426143      0.893587      0.576165     Biso  1.000000 C
   C938       1.0     0.268305      0.725467      0.464126     Biso  1.000000 C
   C939       1.0     0.079865      0.797520      0.198164     Biso  1.000000 C
   C940       1.0     0.505509      0.395311      0.415820     Biso  1.000000 C
   C941       1.0     0.531145      0.347570      0.412158     Biso  1.000000 C
   C942       1.0     0.514053      0.307165      0.430342     Biso  1.000000 C
   C943       1.0     0.474398      0.318272      0.454387     Biso  1.000000 C
   C944       1.0     0.457709      0.367428      0.460334     Biso  1.000000 C
   C945       1.0     0.470443      0.405169      0.441460     Biso  1.000000 C
   C946       1.0     0.624453      0.012722      0.422112     Biso  1.000000 C
   C947       1.0     0.609536      0.037882      0.371177     Biso  1.000000 C
   C948       1.0     0.662337      0.006703      0.363916     Biso  1.000000 C
   C949       1.0     0.699267      0.978770      0.385656     Biso  1.000000 C
   C950       1.0     0.676918      0.981120      0.414183     Biso  1.000000 C
   C951       1.0     0.378415      0.144022      0.280146     Biso  1.000000 C
   C952       1.0     0.591188      0.040119      0.400609     Biso  1.000000 C
   C953       1.0     0.265789      0.172209      0.295207     Biso  1.000000 C
   C954       1.0     0.329619      0.180806      0.282710     Biso  1.000000 C
   C955       1.0     0.867476      0.013820      0.396063     Biso  1.000000 C
   C956       1.0     0.878530      0.964778      0.389297     Biso  1.000000 C
   C957       1.0     0.913883      0.950637      0.364326     Biso  1.000000 C
   C958       1.0     0.932980      0.984745      0.343254     Biso  1.000000 C
   C959       1.0     0.927601      0.033526      0.352325     Biso  1.000000 C
   C960       1.0     0.045079      0.805715      0.223717     Biso  1.000000 C
   C961       1.0     0.360425      0.095488      0.289195     Biso  1.000000 C
   C962       1.0     0.300192      0.089501      0.305742     Biso  1.000000 C
   C963       1.0     0.254005      0.127622      0.309384     Biso  1.000000 C
   C964       1.0     0.892698      0.048080      0.376456     Biso  1.000000 C
   H1         1.0     0.508556      0.810894      0.163561     Biso  1.000000 H
   H2         1.0     0.539994      0.866811      0.172287     Biso  1.000000 H
   H3         1.0     0.509112      0.855016      0.137060     Biso  1.000000 H
   H4         1.0     0.868818      0.043434      0.237722     Biso  1.000000 H
   H5         1.0     0.898041      0.989829      0.255778     Biso  1.000000 H
   H6         1.0     0.959652      0.039476      0.289195     Biso  1.000000 H
   H7         1.0     0.916787      0.094582      0.279931     Biso  1.000000 H
   H8         1.0     0.022317      0.102517      0.254032     Biso  1.000000 H
   H9         1.0     0.963765      0.090492      0.227639     Biso  1.000000 H
   H10        1.0     0.250652      0.766742      0.370229     Biso  1.000000 H
   H11        1.0     0.006670      0.905623      0.079274     Biso  1.000000 H
   H12        1.0     0.834527      0.025576      0.272260     Biso  1.000000 H
   H13        1.0     0.011850      0.853818      0.061757     Biso  1.000000 H
   H14        1.0     0.881005      0.382837      0.749458     Biso  1.000000 H
   H15        1.0     0.206199      0.807221      0.105301     Biso  1.000000 H
   H16        1.0     0.408669      0.486016      0.186055     Biso  1.000000 H
   H17        1.0     0.434585      0.467705      0.152594     Biso  1.000000 H
   H18        1.0     0.239771      0.515248      0.185150     Biso  1.000000 H
   H19        1.0     0.174338      0.479605      0.195578     Biso  1.000000 H
   H20        1.0     0.905834      0.411565      0.008474     Biso  1.000000 H
   H21        1.0     0.974524      0.424185      0.986032     Biso  1.000000 H
   H22        1.0     0.955298      0.584396      0.948607     Biso  1.000000 H
   H23        1.0     0.880919      0.574291      0.964895     Biso  1.000000 H
   H24        1.0     0.809683      0.425534      0.743016     Biso  1.000000 H
   H25        1.0     0.033407      0.495596      0.718130     Biso  1.000000 H
   H26        1.0     0.295043      0.764684      0.403302     Biso  1.000000 H
   H27        1.0     0.161313      0.810609      0.137491     Biso  1.000000 H
   H28        1.0     0.403953      0.794490      0.378137     Biso  1.000000 H
   H29        1.0     0.686886      0.781439      0.788715     Biso  1.000000 H
   H30        1.0     0.877433      0.636037      0.279974     Biso  1.000000 H
   H31        1.0     0.718405      0.839636      0.783156     Biso  1.000000 H
   H32        1.0     0.096559      0.469445      0.740150     Biso  1.000000 H
   H33        1.0     0.687518      0.770459      0.732222     Biso  1.000000 H
   H34        1.0     0.722565      0.829366      0.730885     Biso  1.000000 H
   H35        1.0     0.358643      0.534221      0.746463     Biso  1.000000 H
   H36        1.0     0.323684      0.490362      0.764648     Biso  1.000000 H
   H37        1.0     0.419254      0.462160      0.784147     Biso  1.000000 H
   H38        1.0     0.440653      0.522226      0.795480     Biso  1.000000 H
   H39        1.0     0.827632      0.758672      0.663382     Biso  1.000000 H
   H40        1.0     0.764108      0.798993      0.666076     Biso  1.000000 H
   H41        1.0     0.845224      0.841928      0.634640     Biso  1.000000 H
   H42        1.0     0.776841      0.825934      0.612965     Biso  1.000000 H
   H43        1.0     0.692816      0.771084      0.398885     Biso  1.000000 H
   H44        1.0     0.689932      0.795218      0.365683     Biso  1.000000 H
   H45        1.0     0.655213      0.876818      0.387897     Biso  1.000000 H
   H46        1.0     0.654876      0.851467      0.421056     Biso  1.000000 H
   H47        1.0     0.528562      0.606922      0.610444     Biso  1.000000 H
   H48        1.0     0.583763      0.635379      0.588812     Biso  1.000000 H
   H49        1.0     0.574025      0.589407      0.546798     Biso  1.000000 H
   H50        1.0     0.499824      0.562123      0.559811     Biso  1.000000 H
   H51        1.0     0.073317      0.603051      0.543221     Biso  1.000000 H
   H52        1.0     0.131932      0.650463      0.538912     Biso  1.000000 H
   H53        1.0     0.040517      0.702579      0.516569     Biso  1.000000 H
   H54        1.0     0.985481      0.656297      0.516655     Biso  1.000000 H
   H55        1.0     0.947005      0.683197      0.241450     Biso  1.000000 H
   H56        1.0     0.953517      0.726826      0.267843     Biso  1.000000 H
   H57        1.0     0.855646      0.694666      0.294086     Biso  1.000000 H
   H58        1.0     0.357551      0.803039      0.347111     Biso  1.000000 H
   H59        1.0     0.137413      0.641819      0.929754     Biso  1.000000 H
   H60        1.0     0.609959      0.829297      0.204175     Biso  1.000000 H
   H61        1.0     0.372250      0.675346      0.934903     Biso  1.000000 H
   H62        1.0     0.626275      0.496908      0.059796     Biso  1.000000 H
   H63        1.0     0.570483      0.535460      0.045727     Biso  1.000000 H
   H64        1.0     0.247676      0.233272      0.143481     Biso  1.000000 H
   H65        1.0     0.226849      0.233389      0.108598     Biso  1.000000 H
   H66        1.0     0.084811      0.312263      0.181703     Biso  1.000000 H
   H67        1.0     0.079477      0.364898      0.160653     Biso  1.000000 H
   H68        1.0     0.108976      0.463842      0.387574     Biso  1.000000 H
   H69        1.0     0.140093      0.404006      0.389448     Biso  1.000000 H
   H70        1.0     0.987088      0.355520      0.448592     Biso  1.000000 H
   H71        1.0     0.941825      0.411583      0.443485     Biso  1.000000 H
   H72        1.0     0.042482      0.501071      0.659870     Biso  1.000000 H
   H73        1.0     0.008242      0.560113      0.657608     Biso  1.000000 H
   H74        1.0     0.576771      0.626724      0.126524     Biso  1.000000 H
   H75        1.0     0.236423      0.613201      0.648494     Biso  1.000000 H
   H76        1.0     0.214283      0.442266      0.445187     Biso  1.000000 H
   H77        1.0     0.296783      0.434649      0.445252     Biso  1.000000 H
   H78        1.0     0.217535      0.612964      0.437991     Biso  1.000000 H
   H79        1.0     0.135249      0.605683      0.426399     Biso  1.000000 H
   H80        1.0     0.149192      0.575756      0.202021     Biso  1.000000 H
   H81        1.0     0.209690      0.626491      0.199155     Biso  1.000000 H
   H82        1.0     0.041185      0.618822      0.143287     Biso  1.000000 H
   H83        1.0     0.072909      0.668504      0.124283     Biso  1.000000 H
   H84        1.0     0.675749      0.983967      0.200512     Biso  1.000000 H
   H85        1.0     0.638988      0.802319      0.237270     Biso  1.000000 H
   H86        1.0     0.704279      0.965882      0.233628     Biso  1.000000 H
   H87        1.0     0.224470      0.031961      0.680619     Biso  1.000000 H
   H88        1.0     0.205786      0.667090      0.632787     Biso  1.000000 H
   H89        1.0     0.503932      0.595182      0.134496     Biso  1.000000 H
   H90        1.0     0.225527      0.919801      0.067402     Biso  1.000000 H
   H91        1.0     0.201785      0.869443      0.046287     Biso  1.000000 H
   H92        1.0     0.410700      0.704370      0.907497     Biso  1.000000 H
   H93        1.0     0.360889      0.346645      0.818900     Biso  1.000000 H
   H94        1.0     0.434743      0.325984      0.837128     Biso  1.000000 H
   H95        1.0     0.511307      0.293290      0.753681     Biso  1.000000 H
   H96        1.0     0.493730      0.349478      0.734096     Biso  1.000000 H
   H97        1.0     0.232151      0.102370      0.594414     Biso  1.000000 H
   H98        1.0     0.301442      0.085616      0.570951     Biso  1.000000 H
   H99        1.0     0.284131      0.194917      0.489507     Biso  1.000000 H
   H100       1.0     0.228002      0.221091      0.514716     Biso  1.000000 H
   H101       1.0     0.778265      0.032868      0.495669     Biso  1.000000 H
   H102       1.0     0.752365      0.026347      0.463264     Biso  1.000000 H
   H103       1.0     0.816450      0.096775      0.525812     Biso  1.000000 H
   H104       1.0     0.762250      0.146906      0.535788     Biso  1.000000 H
   H105       1.0     0.250366      0.340436      0.558411     Biso  1.000000 H
   H106       1.0     0.211420      0.385790      0.543393     Biso  1.000000 H
   H107       1.0     0.303443      0.297614      0.463200     Biso  1.000000 H
   H108       1.0     0.319417      0.359109      0.460916     Biso  1.000000 H
   H109       1.0     0.152367      0.305005      0.241428     Biso  1.000000 H
   H110       1.0     0.067188      0.309906      0.257523     Biso  1.000000 H
   H111       1.0     0.123649      0.160901      0.204046     Biso  1.000000 H
   H112       1.0     0.118260      0.134084      0.236839     Biso  1.000000 H
   H113       1.0     0.612623      0.032276      0.167181     Biso  1.000000 H
   H114       1.0     0.652605      0.074026      0.190881     Biso  1.000000 H
   H115       1.0     0.726806      0.107787      0.091469     Biso  1.000000 H
   H116       1.0     0.681685      0.157403      0.107693     Biso  1.000000 H
   H117       1.0     0.324950      0.942743      0.975668     Biso  1.000000 H
   H118       1.0     0.269744      0.994764      0.979697     Biso  1.000000 H
   H119       1.0     0.148682      0.698643      0.915792     Biso  1.000000 H
   H120       1.0     0.140108      0.021592      0.681438     Biso  1.000000 H
   H121       1.0     0.186413      0.408147      0.762752     Biso  1.000000 H
   H122       1.0     0.242955      0.950981      0.656509     Biso  1.000000 H
   H123       1.0     0.837150      0.195393      0.255131     Biso  1.000000 H
   H124       1.0     0.037853      0.264789      0.017416     Biso  1.000000 H
   H125       1.0     0.983490      0.230966      0.039694     Biso  1.000000 H
   H126       1.0     0.078737      0.230052      0.079683     Biso  1.000000 H
   H127       1.0     0.134213      0.252611      0.051975     Biso  1.000000 H
   H128       1.0     0.528608      0.004264      0.104720     Biso  1.000000 H
   H129       1.0     0.499885      0.943342      0.095498     Biso  1.000000 H
   H130       1.0     0.597848      0.919048      0.132514     Biso  1.000000 H
   H131       1.0     0.623698      0.979778      0.134733     Biso  1.000000 H
   H132       1.0     0.266406      0.800053      0.007785     Biso  1.000000 H
   H133       1.0     0.308041      0.743515      0.003691     Biso  1.000000 H
   H134       1.0     0.217264      0.725163      0.965671     Biso  1.000000 H
   H135       1.0     0.825050      0.253356      0.266960     Biso  1.000000 H
   H136       1.0     0.183922      0.779458      0.973147     Biso  1.000000 H
   H137       1.0     0.661398      0.617371      0.903489     Biso  1.000000 H
   H138       1.0     0.636972      0.607306      0.952356     Biso  1.000000 H
   H139       1.0     0.723825      0.597156      0.960758     Biso  1.000000 H
   H140       1.0     0.520795      0.291708      0.113963     Biso  1.000000 H
   H141       1.0     0.586937      0.253663      0.097265     Biso  1.000000 H
   H142       1.0     0.527674      0.185616      0.102026     Biso  1.000000 H
   H143       1.0     0.446879      0.210312      0.110882     Biso  1.000000 H
   H144       1.0     0.469182      0.489126      0.267455     Biso  1.000000 H
   H145       1.0     0.419963      0.519459      0.295336     Biso  1.000000 H
   H146       1.0     0.319438      0.515325      0.255476     Biso  1.000000 H
   H147       1.0     0.378078      0.488271      0.232874     Biso  1.000000 H
   H148       1.0     0.957687      0.586330      0.184202     Biso  1.000000 H
   H149       1.0     0.742581      0.601352      0.905192     Biso  1.000000 H
   H150       1.0     0.878178      0.230148      0.315697     Biso  1.000000 H
   H151       1.0     0.891611      0.172344      0.300334     Biso  1.000000 H
   H152       1.0     0.800144      0.354091      0.507670     Biso  1.000000 H
   H153       1.0     0.084882      0.340739      0.793649     Biso  1.000000 H
   H154       1.0     0.205362      0.976887      0.147359     Biso  1.000000 H
   H155       1.0     0.172934      0.343974      0.804766     Biso  1.000000 H
   H156       1.0     0.102331      0.388703      0.755512     Biso  1.000000 H
   H157       1.0     0.510628      0.361799      0.540808     Biso  1.000000 H
   H158       1.0     0.456729      0.314756      0.546647     Biso  1.000000 H
   H159       1.0     0.474607      0.308970      0.597495     Biso  1.000000 H
   H160       1.0     0.532538      0.358122      0.595254     Biso  1.000000 H
   H161       1.0     0.665629      0.163971      0.762149     Biso  1.000000 H
   H162       1.0     0.738034      0.182436      0.782122     Biso  1.000000 H
   H163       1.0     0.671774      0.083920      0.788521     Biso  1.000000 H
   H164       1.0     0.657040      0.129355      0.811769     Biso  1.000000 H
   H165       1.0     0.127165      0.373623      0.925574     Biso  1.000000 H
   H166       1.0     0.144615      0.327424      0.905601     Biso  1.000000 H
   H167       1.0     0.127640      0.295271      0.951580     Biso  1.000000 H
   H168       1.0     0.052377      0.274899      0.937424     Biso  1.000000 H
   H169       1.0     0.496012      0.322336      0.952808     Biso  1.000000 H
   H170       1.0     0.534023      0.285538      0.929258     Biso  1.000000 H
   H171       1.0     0.459776      0.300524      0.889549     Biso  1.000000 H
   H172       1.0     0.416304      0.340173      0.910082     Biso  1.000000 H
   H173       1.0     0.910810      0.222662      0.793907     Biso  1.000000 H
   H174       1.0     0.890120      0.170543      0.773934     Biso  1.000000 H
   H175       1.0     0.968083      0.193616      0.733665     Biso  1.000000 H
   H176       1.0     0.010349      0.236650      0.755232     Biso  1.000000 H
   H177       1.0     0.790575      0.322486      0.557829     Biso  1.000000 H
   H178       1.0     0.835211      0.269109      0.549383     Biso  1.000000 H
   H179       1.0     0.835359      0.298952      0.497436     Biso  1.000000 H
   H180       1.0     0.993228      0.529174      0.188124     Biso  1.000000 H
   H181       1.0     0.894433      0.583114      0.226518     Biso  1.000000 H
   H182       1.0     0.983817      0.583468      0.233542     Biso  1.000000 H
   H183       1.0     0.819967      0.492961      0.459171     Biso  1.000000 H
   H184       1.0     0.306857      0.321733      0.973169     Biso  1.000000 H
   H185       1.0     0.189521      0.308809      0.004294     Biso  1.000000 H
   H186       1.0     0.223761      0.342610      0.029244     Biso  1.000000 H
   H187       1.0     0.265988      0.960440      0.924195     Biso  1.000000 H
   H188       1.0     0.348646      0.935703      0.916611     Biso  1.000000 H
   H189       1.0     0.310052      0.899479      0.870395     Biso  1.000000 H
   H190       1.0     0.224904      0.925857      0.880091     Biso  1.000000 H
   H191       1.0     0.971819      0.630602      0.721405     Biso  1.000000 H
   H192       1.0     0.053138      0.641052      0.731015     Biso  1.000000 H
   H193       1.0     0.968016      0.719977      0.697576     Biso  1.000000 H
   H194       1.0     0.999837      0.671373      0.680274     Biso  1.000000 H
   H195       1.0     0.215034      0.001444      0.550331     Biso  1.000000 H
   H196       1.0     0.210558      0.010144      0.513639     Biso  1.000000 H
   H197       1.0     0.300238      0.951935      0.504417     Biso  1.000000 H
   H198       1.0     0.302310      0.933613      0.541799     Biso  1.000000 H
   H199       1.0     0.322954      0.026669      0.747390     Biso  1.000000 H
   H200       1.0     0.392873      0.066888      0.747756     Biso  1.000000 H
   H201       1.0     0.420065      0.021090      0.793692     Biso  1.000000 H
   H202       1.0     0.343118      0.990016      0.791257     Biso  1.000000 H
   H203       1.0     0.786742      0.010373      0.742800     Biso  1.000000 H
   H204       1.0     0.782103      0.011395      0.778028     Biso  1.000000 H
   H205       1.0     0.724279      0.926855      0.779299     Biso  1.000000 H
   H206       1.0     0.725157      0.928803      0.741012     Biso  1.000000 H
   H207       1.0     0.723422      0.059030      0.560565     Biso  1.000000 H
   H208       1.0     0.683160      0.058913      0.527686     Biso  1.000000 H
   H209       1.0     0.606933      0.984219      0.549706     Biso  1.000000 H
   H210       1.0     0.673846      0.988740      0.578621     Biso  1.000000 H
   H211       1.0     0.325868      0.365300      0.999541     Biso  1.000000 H
   H212       1.0     0.156016      0.945502      0.654118     Biso  1.000000 H
   H213       1.0     0.919828      0.661209      0.021122     Biso  1.000000 H
   H214       1.0     0.915669      0.591286      0.072595     Biso  1.000000 H
   H215       1.0     0.775468      0.547288      0.454452     Biso  1.000000 H
   H216       1.0     0.807310      0.578921      0.498815     Biso  1.000000 H
   H217       1.0     0.857743      0.528256      0.506291     Biso  1.000000 H
   H218       1.0     0.649344      0.316737      0.705354     Biso  1.000000 H
   H219       1.0     0.683175      0.367523      0.722526     Biso  1.000000 H
   H220       1.0     0.763439      0.298481      0.748855     Biso  1.000000 H
   H221       1.0     0.724050      0.256898      0.728731     Biso  1.000000 H
   H222       1.0     0.661852      0.631088      0.823856     Biso  1.000000 H
   H223       1.0     0.663833      0.644879      0.860656     Biso  1.000000 H
   H224       1.0     0.570544      0.694283      0.816810     Biso  1.000000 H
   H225       1.0     0.650497      0.711965      0.823296     Biso  1.000000 H
   H226       1.0     0.500299      0.165148      0.874855     Biso  1.000000 H
   H227       1.0     0.479149      0.117283      0.897155     Biso  1.000000 H
   H228       1.0     0.423576      0.075046      0.858480     Biso  1.000000 H
   H229       1.0     0.442220      0.128057      0.835706     Biso  1.000000 H
   H230       1.0     0.375102      0.180714      0.864190     Biso  1.000000 H
   H231       1.0     0.356138      0.140466      0.890088     Biso  1.000000 H
   H232       1.0     0.327062      0.132476      0.855550     Biso  1.000000 H
   H233       1.0     0.826402      0.876855      0.879789     Biso  1.000000 H
   H234       1.0     0.753069      0.855941      0.858157     Biso  1.000000 H
   H235       1.0     0.702048      0.939446      0.858480     Biso  1.000000 H
   H236       1.0     0.763745      0.960890      0.880866     Biso  1.000000 H
   H237       1.0     0.671080      0.211526      0.062080     Biso  1.000000 H
   H238       1.0     0.675346      0.272450      0.044908     Biso  1.000000 H
   H239       1.0     0.768109      0.253134      0.019312     Biso  1.000000 H
   H240       1.0     0.770972      0.189486      0.026142     Biso  1.000000 H
   H241       1.0     0.937482      0.575731      0.037906     Biso  1.000000 H
   H242       1.0     0.888875      0.674316      0.056823     Biso  1.000000 H
   H243       1.0     0.203469      0.916573      0.134173     Biso  1.000000 H
   H244       1.0     0.311685      0.859275      0.391667     Biso  1.000000 H
   H245       1.0     0.532354      0.509086      0.502629     Biso  1.000000 H
   H246       1.0     0.556321      0.600069      0.865116     Biso  1.000000 H
   H247       1.0     0.528241      0.615299      0.829372     Biso  1.000000 H
   H248       1.0     0.621907      0.725916      0.878302     Biso  1.000000 H
   H249       1.0     0.534957      0.708990      0.864685     Biso  1.000000 H
   H250       1.0     0.573897      0.113076      0.846673     Biso  1.000000 H
   H251       1.0     0.600242      0.096903      0.880328     Biso  1.000000 H
   H252       1.0     0.072914      0.183298      0.933654     Biso  1.000000 H
   H253       1.0     0.149106      0.160919      0.921911     Biso  1.000000 H
   H254       1.0     0.109221      0.138934      0.956859     Biso  1.000000 H
   H255       1.0     0.856835      0.870583      0.825084     Biso  1.000000 H
   H256       1.0     0.802921      0.924501      0.822197     Biso  1.000000 H
   H257       1.0     0.744296      0.886518      0.918485     Biso  1.000000 H
   H258       1.0     0.609908      0.271240      0.750341     Biso  1.000000 H
   H259       1.0     0.665981      0.883507      0.900279     Biso  1.000000 H
   H260       1.0     0.643377      0.246142      0.000265     Biso  1.000000 H
   H261       1.0     0.859698      0.230389      0.057728     Biso  1.000000 H
   H262       1.0     0.789544      0.216354      0.081902     Biso  1.000000 H
   H263       1.0     0.789340      0.611377      0.055660     Biso  1.000000 H
   H264       1.0     0.814945      0.594064      0.022070     Biso  1.000000 H
   H265       1.0     0.998822      0.657108      0.080093     Biso  1.000000 H
   H266       1.0     0.015907      0.702780      0.054561     Biso  1.000000 H
   H267       1.0     0.259782      0.394843      0.949856     Biso  1.000000 H
   H268       1.0     0.187811      0.362471      0.967007     Biso  1.000000 H
   H269       1.0     0.245017      0.268203      0.041526     Biso  1.000000 H
   H270       1.0     0.331742      0.291971      0.037690     Biso  1.000000 H
   H271       1.0     0.382217      0.993123      0.885262     Biso  1.000000 H
   H272       1.0     0.585544      0.224354      0.022436     Biso  1.000000 H
   H273       1.0     0.668513      0.253492      0.774085     Biso  1.000000 H
   H274       1.0     0.763980      0.293159      0.687901     Biso  1.000000 H
   H275       1.0     0.797072      0.338173      0.709728     Biso  1.000000 H
   H276       1.0     0.493164      0.987848      0.157507     Biso  1.000000 H
   H277       1.0     0.696159      0.939340      0.101401     Biso  1.000000 H
   H278       1.0     0.652538      0.987593      0.086276     Biso  1.000000 H
   H279       1.0     0.336841      0.755266      0.956126     Biso  1.000000 H
   H280       1.0     0.294976      0.808800      0.952506     Biso  1.000000 H
   H281       1.0     0.173623      0.760247      0.024375     Biso  1.000000 H
   H282       1.0     0.194349      0.698230      0.015089     Biso  1.000000 H
   H283       1.0     0.722345      0.693632      0.904718     Biso  1.000000 H
   H284       1.0     0.677087      0.685924      0.937295     Biso  1.000000 H
   H285       1.0     0.728990      0.516725      0.935464     Biso  1.000000 H
   H286       1.0     0.650252      0.527014      0.919196     Biso  1.000000 H
   H287       1.0     0.495129      0.242428      0.059602     Biso  1.000000 H
   H288       1.0     0.448518      0.289595      0.075783     Biso  1.000000 H
   H289       1.0     0.579899      0.209665      0.146131     Biso  1.000000 H
   H290       1.0     0.505550      0.174749      0.151194     Biso  1.000000 H
   H291       1.0     0.413629      0.430406      0.304277     Biso  1.000000 H
   H292       1.0     0.332350      0.445899      0.294603     Biso  1.000000 H
   H293       1.0     0.410511      0.590431      0.258751     Biso  1.000000 H
   H294       1.0     0.361915      0.587280      0.230073     Biso  1.000000 H
   H295       1.0     0.899986      0.528121      0.152616     Biso  1.000000 H
   H296       1.0     0.890973      0.486996      0.176618     Biso  1.000000 H
   H297       1.0     0.969573      0.490132      0.235331     Biso  1.000000 H
   H298       1.0     0.884593      0.496506      0.237011     Biso  1.000000 H
   H299       1.0     0.906452      0.580785      0.461993     Biso  1.000000 H
   H300       1.0     0.924677      0.517953      0.462079     Biso  1.000000 H
   H301       1.0     0.720355      0.491458      0.491188     Biso  1.000000 H
   H302       1.0     0.705197      0.540325      0.516138     Biso  1.000000 H
   H303       1.0     0.298610      0.009370      0.872937     Biso  1.000000 H
   H304       1.0     0.459393      0.932688      0.145355     Biso  1.000000 H
   H305       1.0     0.232723      0.868430      0.924001     Biso  1.000000 H
   H306       1.0     0.930235      0.712908      0.749695     Biso  1.000000 H
   H307       1.0     0.690907      0.768387      0.630546     Biso  1.000000 H
   H308       1.0     0.743842      0.718760      0.624039     Biso  1.000000 H
   H309       1.0     0.841014      0.747031      0.602989     Biso  1.000000 H
   H310       1.0     0.911739      0.775225      0.615831     Biso  1.000000 H
   H311       1.0     0.805437      0.799823      0.382403     Biso  1.000000 H
   H312       1.0     0.783318      0.858094      0.386647     Biso  1.000000 H
   H313       1.0     0.567380      0.800631      0.373698     Biso  1.000000 H
   H314       1.0     0.543689      0.853463      0.389965     Biso  1.000000 H
   H315       1.0     0.430262      0.642825      0.581724     Biso  1.000000 H
   H316       1.0     0.492521      0.684147      0.593444     Biso  1.000000 H
   H317       1.0     0.604534      0.506919      0.559725     Biso  1.000000 H
   H318       1.0     0.574015      0.516685      0.596806     Biso  1.000000 H
   H319       1.0     0.515369      0.479620      0.755254     Biso  1.000000 H
   H320       1.0     0.097651      0.662470      0.585947     Biso  1.000000 H
   H321       1.0     0.040307      0.609908      0.481406     Biso  1.000000 H
   H322       1.0     0.116085      0.631940      0.485801     Biso  1.000000 H
   H323       1.0     0.993504      0.621180      0.274803     Biso  1.000000 H
   H324       1.0     0.052816      0.668665      0.272993     Biso  1.000000 H
   H325       1.0     0.825142      0.662927      0.229449     Biso  1.000000 H
   H326       1.0     0.836109      0.720924      0.238821     Biso  1.000000 H
   H327       1.0     0.385371      0.700544      0.370057     Biso  1.000000 H
   H328       1.0     0.326455      0.716837      0.338449     Biso  1.000000 H
   H329       1.0     0.245329      0.835978      0.413472     Biso  1.000000 H
   H330       1.0     0.987966      0.009495      0.222726     Biso  1.000000 H
   H331       1.0     0.063697      0.044666      0.218396     Biso  1.000000 H
   H332       1.0     0.329936      0.576228      0.994262     Biso  1.000000 H
   H333       1.0     0.050096      0.704853      0.566964     Biso  1.000000 H
   H334       1.0     0.439632      0.467347      0.737134     Biso  1.000000 H
   H335       1.0     0.321760      0.542017      0.808795     Biso  1.000000 H
   H336       1.0     0.272541      0.565376      0.778330     Biso  1.000000 H
   H337       1.0     0.949873      0.657108      0.767040     Biso  1.000000 H
   H338       1.0     0.118969      0.694962      0.700570     Biso  1.000000 H
   H339       1.0     0.087786      0.744326      0.716234     Biso  1.000000 H
   H340       1.0     0.105638      0.960294      0.524325     Biso  1.000000 H
   H341       1.0     0.162130      0.922143      0.511182     Biso  1.000000 H
   H342       1.0     0.331804      0.042831      0.527083     Biso  1.000000 H
   H343       1.0     0.394180      0.991964      0.520555     Biso  1.000000 H
   H344       1.0     0.476751      0.001982      0.744783     Biso  1.000000 H
   H345       1.0     0.416901      0.954157      0.748876     Biso  1.000000 H
   H346       1.0     0.353091      0.101405      0.795932     Biso  1.000000 H
   H347       1.0     0.343460      0.057608      0.824330     Biso  1.000000 H
   H348       1.0     0.855819      0.921851      0.776800     Biso  1.000000 H
   H349       1.0     0.881812      0.947673      0.744136     Biso  1.000000 H
   H350       1.0     0.658351      0.007748      0.775895     Biso  1.000000 H
   H351       1.0     0.617819      0.954954      0.761136     Biso  1.000000 H
   H352       1.0     0.630700      0.126314      0.556558     Biso  1.000000 H
   H353       1.0     0.568579      0.084304      0.551602     Biso  1.000000 H
   H354       1.0     0.711296      0.960765      0.518616     Biso  1.000000 H
   H355       1.0     0.707417      0.925542      0.548004     Biso  1.000000 H
   H356       1.0     0.220540      0.033749      0.628004     Biso  1.000000 H
   H357       1.0     0.220765      0.980378      0.610724     Biso  1.000000 H
   H358       1.0     0.192486      0.004407      0.727611     Biso  1.000000 H
   H359       1.0     0.251938      0.961028      0.712830     Biso  1.000000 H
   H360       1.0     0.793622      0.785170      0.800069     Biso  1.000000 H
   H361       1.0     0.796720      0.746238      0.771069     Biso  1.000000 H
   H362       1.0     0.605335      0.836003      0.722612     Biso  1.000000 H
   H363       1.0     0.618549      0.858514      0.755362     Biso  1.000000 H
   H364       1.0     0.303979      0.844344      0.909264     Biso  1.000000 H
   H365       1.0     0.051938      0.160009      0.053505     Biso  1.000000 H
   H366       1.0     0.108808      0.171847      0.026293     Biso  1.000000 H
   H367       1.0     0.971660      0.321225      0.044348     Biso  1.000000 H
   H368       1.0     0.852961      0.864731      0.238562     Biso  1.000000 H
   H369       1.0     0.853033      0.805053      0.250219     Biso  1.000000 H
   H370       1.0     0.331314      0.674370      0.232767     Biso  1.000000 H
   H371       1.0     0.322434      0.669506      0.269545     Biso  1.000000 H
   H372       1.0     0.533788      0.770430      0.221821     Biso  1.000000 H
   H373       1.0     0.518263      0.731274      0.248711     Biso  1.000000 H
   H374       1.0     0.348304      0.941566      0.411425     Biso  1.000000 H
   H375       1.0     0.377328      0.001225      0.409098     Biso  1.000000 H
   H376       1.0     0.432998      0.863390      0.443033     Biso  1.000000 H
   H377       1.0     0.359690      0.896273      0.449841     Biso  1.000000 H
   H378       1.0     0.415150      0.809158      0.670924     Biso  1.000000 H
   H379       1.0     0.331227      0.787732      0.671807     Biso  1.000000 H
   H380       1.0     0.997092      0.843723      0.303157     Biso  1.000000 H
   H381       1.0     0.258281      0.826811      0.727654     Biso  1.000000 H
   H382       1.0     0.451850      0.518023      0.638044     Biso  1.000000 H
   H383       1.0     0.372061      0.485274      0.637075     Biso  1.000000 H
   H384       1.0     0.579639      0.371430      0.658642     Biso  1.000000 H
   H385       1.0     0.517018      0.378370      0.686286     Biso  1.000000 H
   H386       1.0     0.752048      0.672112      0.792657     Biso  1.000000 H
   H387       1.0     0.834553      0.665456      0.778136     Biso  1.000000 H
   H388       1.0     0.789110      0.678603      0.857661     Biso  1.000000 H
   H389       1.0     0.806253      0.717861      0.830341     Biso  1.000000 H
   H390       1.0     0.092190      0.909716      0.995232     Biso  1.000000 H
   H391       1.0     0.002602      0.899991      0.005867     Biso  1.000000 H
   H392       1.0     0.113365      0.079055      0.993637     Biso  1.000000 H
   H393       1.0     0.049555      0.064180      0.017976     Biso  1.000000 H
   H394       1.0     0.319703      0.819238      0.757064     Biso  1.000000 H
   H395       1.0     0.975753      0.813716      0.335864     Biso  1.000000 H
   H396       1.0     0.912173      0.196555      0.388737     Biso  1.000000 H
   H397       1.0     0.948276      0.203708      0.352195     Biso  1.000000 H
   H398       1.0     0.489060      0.519806      0.471689     Biso  1.000000 H
   H399       1.0     0.938064      0.345008      0.366847     Biso  1.000000 H
   H400       1.0     0.954323      0.400052      0.348813     Biso  1.000000 H
   H401       1.0     0.803451      0.336605      0.280038     Biso  1.000000 H
   H402       1.0     0.763352      0.392720      0.274630     Biso  1.000000 H
   H403       1.0     0.455596      0.110908      0.358034     Biso  1.000000 H
   H404       1.0     0.388448      0.149209      0.346012     Biso  1.000000 H
   H405       1.0     0.317121      0.228832      0.434457     Biso  1.000000 H
   H406       1.0     0.363813      0.182363      0.442322     Biso  1.000000 H
   H407       1.0     0.007803      0.896197      0.419483     Biso  1.000000 H
   H408       1.0     0.952869      0.931807      0.441589     Biso  1.000000 H
   H409       1.0     0.057384      0.780657      0.485500     Biso  1.000000 H
   H410       1.0     0.094926      0.831994      0.502327     Biso  1.000000 H
   H411       1.0     0.391118      0.544101      0.422155     Biso  1.000000 H
   H412       1.0     0.472760      0.563563      0.427584     Biso  1.000000 H
   H413       1.0     0.541377      0.520954      0.371501     Biso  1.000000 H
   H414       1.0     0.486274      0.486630      0.348533     Biso  1.000000 H
   H415       1.0     0.414257      0.179007      0.491102     Biso  1.000000 H
   H416       1.0     0.477843      0.200758      0.512410     Biso  1.000000 H
   H417       1.0     0.508117      0.021305      0.495669     Biso  1.000000 H
   H418       1.0     0.575883      0.058131      0.502456     Biso  1.000000 H
   H419       1.0     0.655463      0.976284      0.275341     Biso  1.000000 H
   H420       1.0     0.706386      0.031519      0.280297     Biso  1.000000 H
   H421       1.0     0.567834      0.147535      0.242117     Biso  1.000000 H
   H422       1.0     0.570810      0.173792      0.275643     Biso  1.000000 H
   H423       1.0     0.068066      0.111683      0.344676     Biso  1.000000 H
   H424       1.0     0.041594      0.160850      0.320135     Biso  1.000000 H
   H425       1.0     0.631297      0.243707      0.919757     Biso  1.000000 H
   H426       1.0     0.609291      0.191149      0.901443     Biso  1.000000 H
   H427       1.0     0.595047      0.184007      0.837645     Biso  1.000000 H
   H428       1.0     0.606254      0.238477      0.812846     Biso  1.000000 H
   H429       1.0     0.604054      0.310312      0.559747     Biso  1.000000 H
   H430       1.0     0.550936      0.257881      0.566426     Biso  1.000000 H
   H431       1.0     0.798914      0.120294      0.755900     Biso  1.000000 H
   H432       1.0     0.738427      0.084870      0.741292     Biso  1.000000 H
   H433       1.0     0.795791      0.078504      0.802439     Biso  1.000000 H
   H434       1.0     0.742499      0.075415      0.832130     Biso  1.000000 H
   H435       1.0     0.015560      0.387446      0.911289     Biso  1.000000 H
   H436       1.0     0.059594      0.383041      0.878927     Biso  1.000000 H
   H437       1.0     0.069760      0.378027      0.967050     Biso  1.000000 H
   H438       1.0     0.050137      0.323272      0.987260     Biso  1.000000 H
   H439       1.0     0.550666      0.360995      0.898749     Biso  1.000000 H
   H440       1.0     0.513864      0.391419      0.928914     Biso  1.000000 H
   H441       1.0     0.361818      0.281964      0.939708     Biso  1.000000 H
   H442       1.0     0.422729      0.237213      0.922687     Biso  1.000000 H
   H443       1.0     0.959442      0.141021      0.813428     Biso  1.000000 H
   H444       1.0     0.014039      0.141599      0.783156     Biso  1.000000 H
   H445       1.0     0.891662      0.278799      0.753832     Biso  1.000000 H
   H446       1.0     0.859535      0.235308      0.734225     Biso  1.000000 H
   H447       1.0     0.931143      0.326024      0.531479     Biso  1.000000 H
   H448       1.0     0.878882      0.373235      0.545591     Biso  1.000000 H
   H449       1.0     0.689075      0.328137      0.511161     Biso  1.000000 H
   H450       1.0     0.710520      0.269040      0.520663     Biso  1.000000 H
   H451       1.0     0.756003      0.200681      0.294970     Biso  1.000000 H
   H452       1.0     0.793438      0.146701      0.304665     Biso  1.000000 H
   H453       1.0     0.961882      0.203455      0.264180     Biso  1.000000 H
   H454       1.0     0.950751      0.267128      0.272950     Biso  1.000000 H
   H455       1.0     0.051668      0.322823      0.057663     Biso  1.000000 H
   H456       1.0     0.404576      0.394920      0.538179     Biso  1.000000 H
   H457       1.0     0.563093      0.558238      0.481147     Biso  1.000000 H
   H458       1.0     0.449125      0.414660      0.572179     Biso  1.000000 H
   H459       1.0     0.132866      0.308649      0.746312     Biso  1.000000 H
   H460       1.0     0.118515      0.219819      0.720113     Biso  1.000000 H
   H461       1.0     0.087954      0.174695      0.746054     Biso  1.000000 H
   H462       1.0     0.168887      0.113595      0.642483     Biso  1.000000 H
   H463       1.0     0.115585      0.149578      0.624923     Biso  1.000000 H
   H464       1.0     0.677143      0.941825      0.684217     Biso  1.000000 H
   H465       1.0     0.716966      0.886731      0.675168     Biso  1.000000 H
   H466       1.0     0.541831      0.876968      0.606674     Biso  1.000000 H
   H467       1.0     0.532155      0.823668      0.623867     Biso  1.000000 H
   H468       1.0     0.652707      0.630701      0.449712     Biso  1.000000 H
   H469       1.0     0.746368      0.621885      0.451974     Biso  1.000000 H
   H470       1.0     0.768221      0.672536      0.364283     Biso  1.000000 H
   H471       1.0     0.692035      0.694652      0.360706     Biso  1.000000 H
   H472       1.0     0.720135      0.403242      0.192304     Biso  1.000000 H
   H473       1.0     0.632731      0.409887      0.192950     Biso  1.000000 H
   H474       1.0     0.579914      0.260422      0.239274     Biso  1.000000 H
   H475       1.0     0.662199      0.278356      0.254011     Biso  1.000000 H
   H476       1.0     0.980770      0.106764      0.099592     Biso  1.000000 H
   H477       1.0     0.950353      0.155396      0.079532     Biso  1.000000 H
   H478       1.0     0.773116      0.897502      0.009875     Biso  1.000000 H
   H479       1.0     0.821447      0.840985      0.006729     Biso  1.000000 H
   H480       1.0     0.790504      0.861358      0.038660     Biso  1.000000 H
   H481       1.0     0.354989      0.648095      0.025409     Biso  1.000000 H
   H482       1.0     0.402713      0.632719      0.056780     Biso  1.000000 H
   H483       1.0     0.373255      0.490950      0.001687     Biso  1.000000 H
   H484       1.0     0.445848      0.509905      0.982563     Biso  1.000000 H
   H485       1.0     0.097024      0.442062      0.801534     Biso  1.000000 H
   H486       1.0     0.070572      0.401276      0.831095     Biso  1.000000 H
   H487       1.0     0.218632      0.321203      0.760964     Biso  1.000000 H
   H488       1.0     0.410399      0.590252      0.981809     Biso  1.000000 H
   H489       1.0     0.164779      0.529488      0.896099     Biso  1.000000 H
   H490       1.0     0.379287      0.555515      0.039737     Biso  1.000000 H
   H491       1.0     0.581405      0.504697      0.282753     Biso  1.000000 H
   H492       1.0     0.778490      0.494507      0.246556     Biso  1.000000 H
   H493       1.0     0.820946      0.564225      0.280404     Biso  1.000000 H
   H494       1.0     0.764332      0.128807      0.225893     Biso  1.000000 H
   H495       1.0     0.846612      0.085415      0.193273     Biso  1.000000 H
   H496       1.0     0.823437      0.214351      0.135703     Biso  1.000000 H
   H497       1.0     0.740356      0.243313      0.168818     Biso  1.000000 H
   H498       1.0     0.655779      0.761947      0.036225     Biso  1.000000 H
   H499       1.0     0.564063      0.717312      0.046029     Biso  1.000000 H
   H500       1.0     0.511021      0.720474      0.954618     Biso  1.000000 H
   H501       1.0     0.610041      0.780770      0.945676     Biso  1.000000 H
   H502       1.0     0.249248      0.533841      0.934278     Biso  1.000000 H
   H503       1.0     0.628179      0.573344      0.320674     Biso  1.000000 H
   H504       1.0     0.270152      0.404039      0.859945     Biso  1.000000 H
   H505       1.0     0.195854      0.414028      0.677107     Biso  1.000000 H
   H506       1.0     0.255898      0.446813      0.633326     Biso  1.000000 H
   H507       1.0     0.324939      0.302940      0.611952     Biso  1.000000 H
   H508       1.0     0.271438      0.268704      0.656294     Biso  1.000000 H
   H509       1.0     0.614364      0.245294      0.653450     Biso  1.000000 H
   H510       1.0     0.656979      0.195067      0.695120     Biso  1.000000 H
   H511       1.0     0.849496      0.176094      0.650886     Biso  1.000000 H
   H512       1.0     0.800986      0.214464      0.606307     Biso  1.000000 H
   H513       1.0     0.950792      0.157001      0.877053     Biso  1.000000 H
   H514       1.0     0.989104      0.233196      0.895237     Biso  1.000000 H
   H515       1.0     0.830674      0.309051      0.846242     Biso  1.000000 H
   H516       1.0     0.786574      0.233916      0.832151     Biso  1.000000 H
   H517       1.0     0.360797      0.415169      0.897500     Biso  1.000000 H
   H518       1.0     0.675060      0.844498      0.515535     Biso  1.000000 H
   H519       1.0     0.714812      0.777393      0.486534     Biso  1.000000 H
   H520       1.0     0.652605      0.677155      0.553714     Biso  1.000000 H
   H521       1.0     0.304831      0.804574      0.590687     Biso  1.000000 H
   H522       1.0     0.308878      0.797319      0.536973     Biso  1.000000 H
   H523       1.0     0.383335      0.709147      0.693805     Biso  1.000000 H
   H524       1.0     0.408924      0.629966      0.672001     Biso  1.000000 H
   H525       1.0     0.239740      0.570464      0.721061     Biso  1.000000 H
   H526       1.0     0.220423      0.648398      0.741421     Biso  1.000000 H
   H527       1.0     0.613669      0.494868      0.728839     Biso  1.000000 H
   H528       1.0     0.681445      0.555778      0.757990     Biso  1.000000 H
   H529       1.0     0.838620      0.547624      0.692297     Biso  1.000000 H
   H530       1.0     0.768589      0.484964      0.665666     Biso  1.000000 H
   H531       1.0     0.829372      0.828810      0.919843     Biso  1.000000 H
   H532       1.0     0.906370      0.872374      0.945202     Biso  1.000000 H
   H533       1.0     0.070730      0.776771      0.921028     Biso  1.000000 H
   H534       1.0     0.995066      0.731973      0.888041     Biso  1.000000 H
   H535       1.0     0.891447      0.195440      0.987712     Biso  1.000000 H
   H536       1.0     0.780281      0.210181      0.959250     Biso  1.000000 H
   H537       1.0     0.827785      0.083979      0.908316     Biso  1.000000 H
   H538       1.0     0.934134      0.068229      0.940139     Biso  1.000000 H
   H539       1.0     0.389898      0.237490      0.823619     Biso  1.000000 H
   H540       1.0     0.274179      0.247808      0.806598     Biso  1.000000 H
   H541       1.0     0.316406      0.152856      0.734979     Biso  1.000000 H
   H542       1.0     0.436412      0.146237      0.748079     Biso  1.000000 H
   H543       1.0     0.010727      0.040485      0.690035     Biso  1.000000 H
   H544       1.0     0.937844      0.970001      0.696391     Biso  1.000000 H
   H545       1.0     0.793260      0.033295      0.634963     Biso  1.000000 H
   H546       1.0     0.878719      0.098153      0.625376     Biso  1.000000 H
   H547       1.0     0.619972      0.741125      0.583857     Biso  1.000000 H
   H548       1.0     0.800318      0.289665      0.981916     Biso  1.000000 H
   H549       1.0     0.465722      0.916493      0.587476     Biso  1.000000 H
   H550       1.0     0.684635      0.315520      0.969247     Biso  1.000000 H
   H551       1.0     0.895500      0.401466      0.933761     Biso  1.000000 H
   H552       1.0     0.706085      0.414540      0.022005     Biso  1.000000 H
   H553       1.0     0.474255      0.331836      0.181121     Biso  1.000000 H
   H554       1.0     0.444828      0.384620      0.220119     Biso  1.000000 H
   H555       1.0     0.288684      0.284058      0.245910     Biso  1.000000 H
   H556       1.0     0.318009      0.230005      0.208377     Biso  1.000000 H
   H557       1.0     0.531471      0.516630      0.180324     Biso  1.000000 H
   H558       1.0     0.640627      0.488015      0.159446     Biso  1.000000 H
   H559       1.0     0.741606      0.604422      0.205253     Biso  1.000000 H
   H560       1.0     0.634538      0.639605      0.220636     Biso  1.000000 H
   H561       1.0     0.873488      0.501166      0.320975     Biso  1.000000 H
   H562       1.0     0.866557      0.505322      0.374107     Biso  1.000000 H
   H563       1.0     0.065075      0.569086      0.382360     Biso  1.000000 H
   H564       1.0     0.638820      0.354558      0.044693     Biso  1.000000 H
   H565       1.0     0.075522      0.561399      0.325737     Biso  1.000000 H
   H566       1.0     0.862592      0.458154      0.625655     Biso  1.000000 H
   H567       1.0     0.699532      0.348955      0.620657     Biso  1.000000 H
   H568       1.0     0.670957      0.379478      0.571187     Biso  1.000000 H
   H569       1.0     0.609699      0.413487      0.770875     Biso  1.000000 H
   H570       1.0     0.592658      0.501012      0.794618     Biso  1.000000 H
   H571       1.0     0.696006      0.452460      0.869555     Biso  1.000000 H
   H572       1.0     0.726071      0.374343      0.847147     Biso  1.000000 H
   H573       1.0     0.589509      0.843434      0.823123     Biso  1.000000 H
   H574       1.0     0.600793      0.939168      0.811984     Biso  1.000000 H
   H575       1.0     0.515665      0.967710      0.896078     Biso  1.000000 H
   H576       1.0     0.502534      0.881690      0.906097     Biso  1.000000 H
   H577       1.0     0.131881      0.977479      0.907669     Biso  1.000000 H
   H578       1.0     0.826443      0.488377      0.579073     Biso  1.000000 H
   H579       1.0     0.465094      0.407946      0.991655     Biso  1.000000 H
   H580       1.0     0.542949      0.467464      0.969549     Biso  1.000000 H
   H581       1.0     0.019781      0.682090      0.964550     Biso  1.000000 H
   H582       1.0     0.188903      0.313433      0.847901     Biso  1.000000 H
   H583       1.0     0.104965      0.261277      0.822585     Biso  1.000000 H
   H584       1.0     0.171883      0.138156      0.868714     Biso  1.000000 H
   H585       1.0     0.259047      0.187684      0.897758     Biso  1.000000 H
   H586       1.0     0.026635      0.378933      0.682601     Biso  1.000000 H
   H587       1.0     0.005363      0.407120      0.632464     Biso  1.000000 H
   H588       1.0     0.908493      0.266796      0.612792     Biso  1.000000 H
   H589       1.0     0.921717      0.247845      0.665580     Biso  1.000000 H
   H590       1.0     0.750517      0.292190      0.426356     Biso  1.000000 H
   H591       1.0     0.777842      0.258254      0.377232     Biso  1.000000 H
   H592       1.0     0.641004      0.137710      0.396321     Biso  1.000000 H
   H593       1.0     0.609286      0.171248      0.440792     Biso  1.000000 H
   H594       1.0     0.867022      0.372325      0.191808     Biso  1.000000 H
   H595       1.0     0.906135      0.388374      0.140658     Biso  1.000000 H
   H596       1.0     0.986548      0.243693      0.133225     Biso  1.000000 H
   H597       1.0     0.953277      0.227457      0.180841     Biso  1.000000 H
   H598       1.0     0.189317      0.012394      0.086125     Biso  1.000000 H
   H599       1.0     0.285422      0.982238      0.105409     Biso  1.000000 H
   H600       1.0     0.358587      0.133744      0.126632     Biso  1.000000 H
   H601       1.0     0.253663      0.164157      0.097954     Biso  1.000000 H
   H602       1.0     0.513165      0.883595      0.060744     Biso  1.000000 H
   H603       1.0     0.423831      0.842166      0.028318     Biso  1.000000 H
   H604       1.0     0.548104      0.878149      0.954661     Biso  1.000000 H
   H605       1.0     0.634191      0.918426      0.983920     Biso  1.000000 H
   H606       1.0     0.928959      0.795115      0.018665     Biso  1.000000 H
   H607       1.0     0.812010      0.757038      0.008690     Biso  1.000000 H
   H608       1.0     0.913423      0.661275      0.946883     Biso  1.000000 H
   H609       1.0     0.782869      0.430541      0.915921     Biso  1.000000 H
   H610       1.0     0.070602      0.913284      0.879660     Biso  1.000000 H
   H611       1.0     0.464334      0.909903      0.534667     Biso  1.000000 H
   H612       1.0     0.386958      0.880780      0.339742     Biso  1.000000 H
   H613       1.0     0.029355      0.182619      0.453526     Biso  1.000000 H
   H614       1.0     0.983251      0.167323      0.593918     Biso  1.000000 H
   H615       1.0     0.083295      0.220016      0.598141     Biso  1.000000 H
   H616       1.0     0.049305      0.278247      0.512626     Biso  1.000000 H
   H617       1.0     0.942917      0.229629      0.511613     Biso  1.000000 H
   H618       1.0     0.324516      0.304617      0.350730     Biso  1.000000 H
   H619       1.0     0.250723      0.294095      0.311646     Biso  1.000000 H
   H620       1.0     0.076502      0.296108      0.366566     Biso  1.000000 H
   H621       1.0     0.150907      0.310304      0.408667     Biso  1.000000 H
   H622       1.0     0.329660      0.151504      0.207644     Biso  1.000000 H
   H623       1.0     0.453315      0.131453      0.197173     Biso  1.000000 H
   H624       1.0     0.412716      0.979983      0.221067     Biso  1.000000 H
   H625       1.0     0.929229      0.129465      0.451393     Biso  1.000000 H
   H626       1.0     0.298258      0.005984      0.235654     Biso  1.000000 H
   H627       1.0     0.388846      0.094589      0.063869     Biso  1.000000 H
   H628       1.0     0.487126      0.999592      0.002872     Biso  1.000000 H
   H629       1.0     0.594296      0.031037      0.015735     Biso  1.000000 H
   H630       1.0     0.354341      0.837802      0.150246     Biso  1.000000 H
   H631       1.0     0.421275      0.767915      0.165350     Biso  1.000000 H
   H632       1.0     0.422995      0.714180      0.078821     Biso  1.000000 H
   H633       1.0     0.352187      0.783858      0.063545     Biso  1.000000 H
   H634       1.0     0.423393      0.443977      0.053268     Biso  1.000000 H
   H635       1.0     0.319943      0.390070      0.056241     Biso  1.000000 H
   H636       1.0     0.388770      0.334259      0.134280     Biso  1.000000 H
   H637       1.0     0.490877      0.382563      0.133828     Biso  1.000000 H
   H638       1.0     0.990830      0.393535      0.260453     Biso  1.000000 H
   H639       1.0     0.494169      0.115883      0.084079     Biso  1.000000 H
   H640       1.0     0.025900      0.027564      0.508467     Biso  1.000000 H
   H641       1.0     0.124481      0.077626      0.510040     Biso  1.000000 H
   H642       1.0     0.345691      0.229735      0.708952     Biso  1.000000 H
   H643       1.0     0.687452      0.740375      0.088840     Biso  1.000000 H
   H644       1.0     0.811536      0.742791      0.078434     Biso  1.000000 H
   H645       1.0     0.841851      0.871285      0.125210     Biso  1.000000 H
   H646       1.0     0.730409      0.867348      0.144170     Biso  1.000000 H
   H647       1.0     0.267703      0.692978      0.154921     Biso  1.000000 H
   H648       1.0     0.344833      0.617401      0.165737     Biso  1.000000 H
   H649       1.0     0.307648      0.565168      0.078003     Biso  1.000000 H
   H650       1.0     0.234703      0.638150      0.069384     Biso  1.000000 H
   H651       1.0     0.041757      0.538399      0.116850     Biso  1.000000 H
   H652       1.0     0.989457      0.513640      0.067747     Biso  1.000000 H
   H653       1.0     0.148728      0.403937      0.063869     Biso  1.000000 H
   H654       1.0     0.190118      0.419120      0.110041     Biso  1.000000 H
   H655       1.0     0.989115      0.448915      0.871472     Biso  1.000000 H
   H656       1.0     0.953481      0.426411      0.823425     Biso  1.000000 H
   H657       1.0     0.776938      0.523856      0.834090     Biso  1.000000 H
   H658       1.0     0.818063      0.545793      0.883495     Biso  1.000000 H
   H659       1.0     0.176068      0.612064      0.786517     Biso  1.000000 H
   H660       1.0     0.188020      0.642470      0.835534     Biso  1.000000 H
   H661       1.0     0.984889      0.581597      0.857403     Biso  1.000000 H
   H662       1.0     0.977371      0.546385      0.810476     Biso  1.000000 H
   H663       1.0     0.542408      0.537694      0.917968     Biso  1.000000 H
   H664       1.0     0.553968      0.456108      0.891424     Biso  1.000000 H
   H665       1.0     0.379941      0.492383      0.836676     Biso  1.000000 H
   H666       1.0     0.373663      0.572850      0.860182     Biso  1.000000 H
   H667       1.0     0.490893      0.252041      0.641750     Biso  1.000000 H
   H668       1.0     0.427021      0.196785      0.611996     Biso  1.000000 H
   H669       1.0     0.299855      0.159453      0.682752     Biso  1.000000 H
   H670       1.0     0.015341      0.404668      0.311474     Biso  1.000000 H
   H671       1.0     0.412027      0.827630      0.296844     Biso  1.000000 H
   H672       1.0     0.218019      0.441002      0.288721     Biso  1.000000 H
   H673       1.0     0.093099      0.429690      0.515060     Biso  1.000000 H
   H674       1.0     0.255102      0.694414      0.536111     Biso  1.000000 H
   H675       1.0     0.323761      0.625471      0.517280     Biso  1.000000 H
   H676       1.0     0.336468      0.694579      0.432971     Biso  1.000000 H
   H677       1.0     0.250774      0.755086      0.451694     Biso  1.000000 H
   H678       1.0     0.564777      0.337621      0.393843     Biso  1.000000 H
   H679       1.0     0.538448      0.272095      0.429739     Biso  1.000000 H
   H680       1.0     0.427787      0.374397      0.479941     Biso  1.000000 H
   H681       1.0     0.455004      0.442628      0.446372     Biso  1.000000 H
   H682       1.0     0.547808      0.061789      0.406232     Biso  1.000000 H
   H683       1.0     0.585436      0.064107      0.356246     Biso  1.000000 H
   H684       1.0     0.738177      0.951767      0.379085     Biso  1.000000 H
   H685       1.0     0.703151      0.956982      0.429825     Biso  1.000000 H
   H686       1.0     0.191113      0.116307      0.394059     Biso  1.000000 H
   H687       1.0     0.338234      0.218452      0.275190     Biso  1.000000 H
   H688       1.0     0.289546      0.053613      0.315826     Biso  1.000000 H
   H689       1.0     0.395665      0.063829      0.284132     Biso  1.000000 H
   H690       1.0     0.954553      0.060455      0.338514     Biso  1.000000 H
   H691       1.0     0.958753      0.973064      0.324143     Biso  1.000000 H
   H692       1.0     0.867139      0.936493      0.403690     Biso  1.000000 H
   H693       1.0     0.839779      0.029772      0.415045     Biso  1.000000 H
   H694       1.0     0.061105      0.803621      0.177738     Biso  1.000000 H
   H695       1.0     0.174664      0.773515      0.178320     Biso  1.000000 H
   H696       1.0     0.167188      0.775865      0.272066     Biso  1.000000 H
   H697       1.0     0.055200      0.806990      0.271248     Biso  1.000000 H
   H698       1.0     0.522708      0.947381      0.258579     Biso  1.000000 H
   H699       1.0     0.507372      0.994976      0.302942     Biso  1.000000 H
   H700       1.0     0.225277      0.199563      0.296284     Biso  1.000000 H
   H701       1.0     0.103505      0.062071      0.385376     Biso  1.000000 H
   H702       1.0     0.154005      0.980919      0.462144     Biso  1.000000 H
   H703       1.0     0.239873      0.041004      0.473628     Biso  1.000000 H
   H704       1.0     0.141950      0.447961      0.562979     Biso  1.000000 H
   H705       1.0     0.957595      0.525811      0.584804     Biso  1.000000 H
   H706       1.0     0.899618      0.492050      0.542467     Biso  1.000000 H
   H707       1.0     0.174588      0.552112      0.563151     Biso  1.000000 H
   H708       1.0     0.201565      0.504068      0.520447     Biso  1.000000 H
   H709       1.0     0.411925      0.518585      0.526437     Biso  1.000000 H
   H710       1.0     0.392822      0.559035      0.576984     Biso  1.000000 H
   H711       1.0     0.238031      0.542814      0.353531     Biso  1.000000 H
   H712       1.0     0.231789      0.520745      0.300485     Biso  1.000000 H
   H713       1.0     0.187541      0.666801      0.278487     Biso  1.000000 H
   H714       1.0     0.196768      0.692506      0.332093     Biso  1.000000 H
   H715       1.0     0.920691      0.746322      0.170585     Biso  1.000000 H
   H716       1.0     0.814761      0.787319      0.188425     Biso  1.000000 H
   H717       1.0     0.697853      0.661169      0.161256     Biso  1.000000 H
   H718       1.0     0.802977      0.623643      0.140529     Biso  1.000000 H
   H719       1.0     0.840064      0.976705      0.117518     Biso  1.000000 H
   H720       1.0     0.958376      0.989161      0.104827     Biso  1.000000 H
   H721       1.0     0.011932      0.935915      0.190623     Biso  1.000000 H
   H722       1.0     0.892442      0.930473      0.205597     Biso  1.000000 H
   H723       1.0     0.702666      0.521169      0.397786     Biso  1.000000 H
   H724       1.0     0.781935      0.466455      0.373332     Biso  1.000000 H
   H725       1.0     0.754401      0.365308      0.444261     Biso  1.000000 H
   H726       1.0     0.464854      0.569243      0.025926     Biso  1.000000 H
   H727       1.0     0.524255      0.373254      0.296564     Biso  1.000000 H
   H728       1.0     0.438657      0.312961      0.311840     Biso  1.000000 H
   H729       1.0     0.591106      0.215966      0.341853     Biso  1.000000 H
   H730       1.0     0.683247      0.275432      0.326922     Biso  1.000000 H
   H731       1.0     0.201361      0.424657      0.236860     Biso  1.000000 H
   H732       1.0     0.911540      0.019937      0.861260     Biso  1.000000 H
   H733       1.0     0.659127      0.411535      0.462187     Biso  1.000000 H
   H734       1.0     0.760826      0.018948      0.987260     Biso  1.000000 H
   H735       1.0     0.300376      0.961193      0.185193     Biso  1.000000 H
   H736       1.0     0.321719      0.912787      0.162010     Biso  1.000000 H
   H737       1.0     0.319045      0.859980      0.211802     Biso  1.000000 H
   H738       1.0     0.269979      0.901244      0.226497     Biso  1.000000 H
   H739       1.0     0.350565      0.917874      0.221024     Biso  1.000000 H
   H740       1.0     0.836987      0.333294      0.339763     Biso  1.000000 H
   H741       1.0     0.904849      0.331953      0.315524     Biso  1.000000 H
   H742       1.0     0.867190      0.417113      0.299839     Biso  1.000000 H
   H743       1.0     0.806713      0.419489      0.324466     Biso  1.000000 H
   H744       1.0     0.453381      0.156058      0.405543     Biso  1.000000 H
   H745       1.0     0.383641      0.118397      0.397894     Biso  1.000000 H
   H746       1.0     0.321643      0.195177      0.379429     Biso  1.000000 H
   H747       1.0     0.181891      0.935557      0.194738     Biso  1.000000 H
   H748       1.0     0.389219      0.226544      0.394878     Biso  1.000000 H
   H749       1.0     0.024895      0.901135      0.482548     Biso  1.000000 H
   H750       1.0     0.118326      0.871204      0.459903     Biso  1.000000 H
   H751       1.0     0.073226      0.828723      0.437797     Biso  1.000000 H
   H752       1.0     0.481910      0.610270      0.383609     Biso  1.000000 H
   H753       1.0     0.396078      0.615445      0.380528     Biso  1.000000 H
   H754       1.0     0.440520      0.560029      0.344568     Biso  1.000000 H
   H755       1.0     0.386070      0.530186      0.368872     Biso  1.000000 H
   H756       1.0     0.559071      0.155440      0.485241     Biso  1.000000 H
   H757       1.0     0.506356      0.150649      0.454431     Biso  1.000000 H
   H758       1.0     0.438908      0.089973      0.480997     Biso  1.000000 H
   H759       1.0     0.472219      0.100280      0.515599     Biso  1.000000 H
   H760       1.0     0.555790      0.037542      0.268274     Biso  1.000000 H
   H761       1.0     0.969675      0.857535      0.468672     Biso  1.000000 H
   H762       1.0     0.196401      0.881847      0.181423     Biso  1.000000 H
   H763       1.0     0.672126      0.893266      0.184999     Biso  1.000000 H
   H764       1.0     0.609224      0.914044      0.207752     Biso  1.000000 H
   H765       1.0     0.313160      0.875459      0.017351     Biso  1.000000 H
   H766       1.0     0.561485      0.623417      0.074103     Biso  1.000000 H
   H767       1.0     0.490775      0.581900      0.079597     Biso  1.000000 H
   H768       1.0     0.583584      0.531780      0.111075     Biso  1.000000 H
   H769       1.0     0.640775      0.562598      0.087418     Biso  1.000000 H
   H770       1.0     0.133040      0.263342      0.142425     Biso  1.000000 H
   H771       1.0     0.151520      0.310915      0.117367     Biso  1.000000 H
   H772       1.0     0.213640      0.349993      0.159489     Biso  1.000000 H
   H773       1.0     0.206546      0.298791      0.180130     Biso  1.000000 H
   H774       1.0     0.037914      0.369215      0.394985     Biso  1.000000 H
   H775       1.0     0.988747      0.424569      0.397226     Biso  1.000000 H
   H776       1.0     0.073460      0.445114      0.438659     Biso  1.000000 H
   H777       1.0     0.097988      0.382983      0.438034     Biso  1.000000 H
   H778       1.0     0.161426      0.541118      0.650412     Biso  1.000000 H
   H779       1.0     0.124124      0.564148      0.682106     Biso  1.000000 H
   H780       1.0     0.111727      0.640314      0.661486     Biso  1.000000 H
   H781       1.0     0.087158      0.620738      0.628931     Biso  1.000000 H
   H782       1.0     0.256929      0.503600      0.408172     Biso  1.000000 H
   H783       1.0     0.288398      0.536184      0.437797     Biso  1.000000 H
   H784       1.0     0.167422      0.540928      0.458697     Biso  1.000000 H
   H785       1.0     0.146355      0.516360      0.426335     Biso  1.000000 H
   H786       1.0     0.097789      0.677941      0.209303     Biso  1.000000 H
   H787       1.0     0.052602      0.628497      0.197733     Biso  1.000000 H
   H788       1.0     0.153704      0.637404      0.157572     Biso  1.000000 H
   H789       1.0     0.136525      0.697481      0.165802     Biso  1.000000 H
   H790       1.0     0.741162      0.868405      0.227165     Biso  1.000000 H
   H791       1.0     0.668237      0.877875      0.249206     Biso  1.000000 H
   H792       1.0     0.621192      0.044874      0.244250     Biso  1.000000 H
   H793       1.0     0.665823      0.114629      0.271248     Biso  1.000000 H
   H794       1.0     0.610771      0.109362      0.299343     Biso  1.000000 H
   H795       1.0     0.072853      0.221504      0.354178     Biso  1.000000 H
   H796       1.0     0.684732      0.274420      0.875286     Biso  1.000000 H
   H797       1.0     0.587503      0.288152      0.854085     Biso  1.000000 H
   H798       1.0     0.546501      0.245374      0.874209     Biso  1.000000 H
   H799       1.0     0.064932      0.143138      0.701131     Biso  1.000000 H
   H800       1.0     0.140261      0.112663      0.709965     Biso  1.000000 H
   H801       1.0     0.187403      0.181570      0.673337     Biso  1.000000 H
   H802       1.0     0.104878      0.199735      0.670018     Biso  1.000000 H
   H803       1.0     0.692499      0.888116      0.623113     Biso  1.000000 H
   H804       1.0     0.641729      0.943978      0.627961     Biso  1.000000 H
   H805       1.0     0.562455      0.894859      0.654548     Biso  1.000000 H
   H806       1.0     0.625311      0.844212      0.656681     Biso  1.000000 H
   H807       1.0     0.759295      0.689718      0.414786     Biso  1.000000 H
   H808       1.0     0.672611      0.702265      0.415540     Biso  1.000000 H
   H809       1.0     0.644470      0.619133      0.389534     Biso  1.000000 H
   H810       1.0     0.727985      0.601549      0.396537     Biso  1.000000 H
   H811       1.0     0.710760      0.356382      0.238476     Biso  1.000000 H
   H812       1.0     0.719763      0.332278      0.207773     Biso  1.000000 H
   H813       1.0     0.586110      0.321631      0.205015     Biso  1.000000 H
   H814       1.0     0.586957      0.344471      0.241234     Biso  1.000000 H
   H815       1.0     0.850200      0.115641      0.065506     Biso  1.000000 H
   H816       1.0     0.862780      0.067129      0.088539     Biso  1.000000 H
   H817       1.0     0.966449      0.043292      0.053785     Biso  1.000000 H
   H818       1.0     0.955635      0.100802      0.036161     Biso  1.000000 H
   H819       1.0     0.898679      0.027184      0.011189     Biso  1.000000 H
   H820       1.0     0.847255      0.080671      0.017179     Biso  1.000000 H
   H821       1.0     0.837982      0.026625      0.038961     Biso  1.000000 H
   H822       1.0     0.981204      0.080799      0.885369     Biso  1.000000 H
   H823       1.0     0.686794      0.217564      0.858286     Biso  1.000000 H
   H824       1.0     0.335193      0.922253      0.039953     Biso  1.000000 H
   H825       1.0     0.127466      0.000293      0.998981     Biso  1.000000 H
   H826       1.0     0.980592      0.981438      0.976573     Biso  1.000000 H
   H827       1.0     0.123307      0.185488      0.372664     Biso  1.000000 H
   H828       1.0     0.020868      0.209808      0.400889     Biso  1.000000 H
   H829       1.0     0.024349      0.146288      0.396731     Biso  1.000000 H
   H830       1.0     0.846561      0.822985      0.326534     Biso  1.000000 H
   H831       1.0     0.890646      0.791300      0.302230     Biso  1.000000 H
   H832       1.0     0.882766      0.899037      0.286545     Biso  1.000000 H
   H833       1.0     0.807851      0.866025      0.285015     Biso  1.000000 H
   H834       1.0     0.430339      0.703435      0.271592     Biso  1.000000 H
   H835       1.0     0.378466      0.753851      0.273208     Biso  1.000000 H
   H836       1.0     0.398446      0.781779      0.226604     Biso  1.000000 H
   H837       1.0     0.425495      0.728296      0.213160     Biso  1.000000 H
   H838       1.0     0.501625      0.973631      0.411791     Biso  1.000000 H
   H839       1.0     0.471764      0.913627      0.406513     Biso  1.000000 H
   H840       1.0     0.436432      0.971408      0.460700     Biso  1.000000 H
   H841       1.0     0.507408      0.931738      0.457619     Biso  1.000000 H
   H842       1.0     0.359919      0.901507      0.678852     Biso  1.000000 H
   H843       1.0     0.353193      0.887593      0.732738     Biso  1.000000 H
   H844       1.0     0.414242      0.844571      0.720457     Biso  1.000000 H
   H845       1.0     0.418738      0.443246      0.683873     Biso  1.000000 H
   H846       1.0     0.486927      0.480029      0.683140     Biso  1.000000 H
   H847       1.0     0.525168      0.443505      0.636019     Biso  1.000000 H
   H848       1.0     0.471086      0.396707      0.640630     Biso  1.000000 H
   H849       1.0     0.846811      0.585138      0.807826     Biso  1.000000 H
   H850       1.0     0.776775      0.601856      0.828488     Biso  1.000000 H
   H851       1.0     0.907743      0.665138      0.818362     Biso  1.000000 H
   H852       1.0     0.898363      0.629798      0.850099     Biso  1.000000 H
   H853       1.0     0.005613      0.978623      0.014830     Biso  1.000000 H
   H854       1.0     0.105103      0.005685      0.963710     Biso  1.000000 H
   H855       1.0     0.228431      0.970933      0.023039     Biso  1.000000 H
   H856       1.0     0.284657      0.868690      0.686350     Biso  1.000000 H
   H857       1.0     0.730735      0.100810      0.143868     Biso  1.000000 H
   H858       1.0     0.701666      0.031497      0.686027     Biso  1.000000 H
   H859       1.0     0.691392      0.066837      0.635200     Biso  1.000000 H
   H860       1.0     0.507331      0.138803      0.656875     Biso  1.000000 H
   H861       1.0     0.518559      0.108737      0.707099     Biso  1.000000 H
   H862       1.0     0.885420      0.047272      0.555631     Biso  1.000000 H
   H863       1.0     0.988472      0.070612      0.567007     Biso  1.000000 H
   H864       1.0     0.019490      0.940107      0.617791     Biso  1.000000 H
   H865       1.0     0.908453      0.914256      0.606911     Biso  1.000000 H
   H866       1.0     0.054577      0.887443      0.694064     Biso  1.000000 H
   H867       1.0     0.943795      0.841676      0.697963     Biso  1.000000 H
   H868       1.0     0.952701      0.848302      0.790244     Biso  1.000000 H
   H869       1.0     0.063468      0.882615      0.785892     Biso  1.000000 H
   H870       1.0     0.103490      0.998678      0.832755     Biso  1.000000 H
   H871       1.0     0.425934      0.799637      0.812825     Biso  1.000000 H
   H872       1.0     0.437642      0.645891      0.753746     Biso  1.000000 H
   H873       1.0     0.506015      0.718000      0.741637     Biso  1.000000 H
   H874       1.0     0.637937      0.636553      0.752539     Biso  1.000000 H
   H875       1.0     0.689299      0.689597      0.714985     Biso  1.000000 H
   H876       1.0     0.523530      0.643044      0.656746     Biso  1.000000 H
   H877       1.0     0.490944      0.580603      0.691758     Biso  1.000000 H
   H878       1.0     0.856718      0.873152      0.540506     Biso  1.000000 H
   H879       1.0     0.823937      0.903123      0.493472     Biso  1.000000 H
   H880       1.0     0.852058      0.755540      0.456305     Biso  1.000000 H
   H881       1.0     0.874999      0.725321      0.503232     Biso  1.000000 H
   H882       1.0     0.527159      0.816014      0.464018     Biso  1.000000 H
   H883       1.0     0.509419      0.795123      0.515448     Biso  1.000000 H
   H884       1.0     0.353831      0.726750      0.828747     Biso  1.000000 H
   H885       1.0     0.987941      0.999757      0.818685     Biso  1.000000 H
   H886       1.0     0.039797      0.063811      0.739138     Biso  1.000000 H
   H887       1.0     0.170617      0.073613      0.757839     Biso  1.000000 H
   H888       1.0     0.730837      0.101899      0.999993     Biso  1.000000 H
   H889       1.0     0.210655      0.921255      0.001062     Biso  1.000000 H
   H890       1.0     0.566313      0.100645      0.938609     Biso  1.000000 H
   H891       1.0     0.599084      0.021533      0.921286     Biso  1.000000 H
   H892       1.0     0.702875      0.383992      0.120017     Biso  1.000000 H
   H893       1.0     0.714231      0.475168      0.116182     Biso  1.000000 H
   H894       1.0     0.854707      0.453904      0.045576     Biso  1.000000 H
   H895       1.0     0.843923      0.364847      0.047084     Biso  1.000000 H
   H896       1.0     0.179707      0.536286      0.066583     Biso  1.000000 H
   H897       1.0     0.221464      0.471261      0.029438     Biso  1.000000 H
   H898       1.0     0.117474      0.546787      0.960694     Biso  1.000000 H
   H899       1.0     0.087980      0.613077      0.992883     Biso  1.000000 H
   H900       1.0     0.461904      0.148130      0.003906     Biso  1.000000 H
   H901       1.0     0.475153      0.080090      0.971639     Biso  1.000000 H
   H902       1.0     0.275981      0.104691      0.936368     Biso  1.000000 H
   H903       1.0     0.262196      0.173891      0.964335     Biso  1.000000 H
   H904       1.0     0.107323      0.810368      0.875200     Biso  1.000000 H
   H905       1.0     0.006961      0.782060      0.844648     Biso  1.000000 H
   H906       1.0     0.145548      0.722451      0.784104     Biso  1.000000 H
   H907       1.0     0.243165      0.756545      0.808925     Biso  1.000000 H
   H908       1.0     0.220678      0.834728      0.641879     Biso  1.000000 H
   H909       1.0     0.214947      0.888521      0.598702     Biso  1.000000 H
   H910       1.0     0.020276      0.820974      0.583124     Biso  1.000000 H
   H911       1.0     0.541755      0.995619      0.599370     Biso  1.000000 H
   H912       1.0     0.558066      0.978463      0.651575     Biso  1.000000 H
   H913       1.0     0.343389      0.011368      0.665171     Biso  1.000000 H
   H914       1.0     0.334090      0.025371      0.613956     Biso  1.000000 H
   H915       1.0     0.494195      0.643248      0.493752     Biso  1.000000 H
   H916       1.0     0.518069      0.665898      0.440813     Biso  1.000000 H
   H917       1.0     0.027589      0.774001      0.632098     Biso  1.000000 H
   H918       1.0     0.883690      0.619089      0.557506     Biso  1.000000 H
   H919       1.0     0.995004      0.419609      0.765617     Biso  1.000000 H
   H920       1.0     0.257016      0.616290      0.914133     Biso  1.000000 H
   H921       1.0     0.255684      0.657262      0.943608     Biso  1.000000 H
   H922       1.0     0.290403      0.727005      0.911268     Biso  1.000000 H
   H923       1.0     0.290490      0.688680      0.881362     Biso  1.000000 H
   H924       1.0     0.506050      0.329376      0.801901     Biso  1.000000 H
   H925       1.0     0.478292      0.384821      0.790955     Biso  1.000000 H
   H926       1.0     0.383192      0.356821      0.759089     Biso  1.000000 H
   H927       1.0     0.390796      0.296898      0.771112     Biso  1.000000 H
   H928       1.0     0.229314      0.183163      0.573170     Biso  1.000000 H
   H929       1.0     0.190036      0.139856      0.554834     Biso  1.000000 H
   H930       1.0     0.317988      0.133485      0.530380     Biso  1.000000 H
   H931       1.0     0.329747      0.190692      0.541390     Biso  1.000000 H
   H932       1.0     0.692459      0.099318      0.487762     Biso  1.000000 H
   H933       1.0     0.752227      0.176917      0.488796     Biso  1.000000 H
   H934       1.0     0.826805      0.147133      0.478583     Biso  1.000000 H
   H935       1.0     0.293139      0.308382      0.514845     Biso  1.000000 H
   H936       1.0     0.301361      0.366488      0.514867     Biso  1.000000 H
   H937       1.0     0.212610      0.383813      0.479057     Biso  1.000000 H
   H938       1.0     0.181835      0.323597      0.483862     Biso  1.000000 H
   H939       1.0     0.058920      0.239168      0.231646     Biso  1.000000 H
   H940       1.0     0.078446      0.213203      0.264180     Biso  1.000000 H
   H941       1.0     0.203780      0.212618      0.250283     Biso  1.000000 H
   H942       1.0     0.186561      0.230857      0.215724     Biso  1.000000 H
   H943       1.0     0.623514      0.139560      0.155417     Biso  1.000000 H
   H944       1.0     0.769615      0.585146      0.560414     Biso  1.000000 H
   H945       1.0     0.577449      0.099340      0.137491     Biso  1.000000 H
   H946       1.0     0.010390      0.411422      0.729701     Biso  1.000000 H
   H947       1.0     0.914608      0.450706      0.714791     Biso  1.000000 H
   H948       1.0     0.722626      0.106490      0.454926     Biso  1.000000 H
   H949       1.0     0.987553      0.545566      0.990966     Biso  1.000000 H
   H950       1.0     0.884282      0.642152      0.649313     Biso  1.000000 H
   H951       1.0     0.765879      0.608336      0.652372     Biso  1.000000 H
   H952       1.0     0.908238      0.490428      0.744524     Biso  1.000000 H
   H953       1.0     0.904298      0.652576      0.404983     Biso  1.000000 H
   H954       1.0     0.916297      0.662821      0.354091     Biso  1.000000 H
   H955       1.0     0.110043      0.737678      0.364886     Biso  1.000000 H
   H956       1.0     0.106113      0.724834      0.416854     Biso  1.000000 H
   H957       1.0     0.651431      0.776084      0.312271     Biso  1.000000 H
   H958       1.0     0.548216      0.764524      0.334442     Biso  1.000000 H
   H959       1.0     0.514578      0.630398      0.290510     Biso  1.000000 H
   H960       1.0     0.631991      0.639316      0.268964     Biso  1.000000 H
   H961       1.0     0.161630      0.997296      0.353596     Biso  1.000000 H
   H962       1.0     0.111599      0.023017      0.308608     Biso  1.000000 H
   H963       1.0     0.117560      0.875722      0.276376     Biso  1.000000 H
   H964       1.0     0.693969      0.050459      0.129583     Biso  1.000000 H
   H965       1.0     0.173628      0.848317      0.319704     Biso  1.000000 H
   H966       1.0     0.058395      0.862092      0.125360     Biso  1.000000 H
   H967       1.0     0.875029      0.509894      0.007440     Biso  1.000000 H
   H968       1.0     0.868986      0.481042      0.976875     Biso  1.000000 H
   H969       1.0     0.108354      0.879834      0.094528     Biso  1.000000 H
   H970       1.0     0.106297      0.795583      0.077464     Biso  1.000000 H
   H971       1.0     0.063855      0.774885      0.108921     Biso  1.000000 H
   H972       1.0     0.360511      0.404979      0.166190     Biso  1.000000 H
   H973       1.0     0.310261      0.437818      0.143028     Biso  1.000000 H
   H974       1.0     0.000693      0.503074      0.964507     Biso  1.000000 H
   H975       1.0     0.298253      0.455081      0.207213     Biso  1.000000 H
   H976       1.0     0.254035      0.409050      0.188770     Biso  1.000000 H
   O1         1.0     0.493786      0.122385      0.269287     Biso  1.000000 O
   O2         1.0     0.588259      0.486122      0.468155     Biso  1.000000 O
   O3         1.0     0.643015      0.017449      0.313844     Biso  1.000000 O
   O4         1.0     0.923774      0.133631      0.363141     Biso  1.000000 O
   O5         1.0     0.960019      0.890115      0.331317     Biso  1.000000 O
   O6         1.0     0.144599      0.155078      0.324617     Biso  1.000000 O
   O7         1.0     0.552677      0.047806      0.459364     Biso  1.000000 O
   O8         1.0     0.155403      0.787919      0.479036     Biso  1.000000 O
   O9         1.0     0.479057      0.476312      0.392766     Biso  1.000000 O
   O10        1.0     0.387565      0.611959      0.434695     Biso  1.000000 O
   O11        1.0     0.052576      0.953477      0.441891     Biso  1.000000 O
   O12        1.0     0.276670      0.160776      0.427369     Biso  1.000000 O
   O13        1.0     0.474689      0.186058      0.350536     Biso  1.000000 O
   O14        1.0     0.725601      0.348268      0.307811     Biso  1.000000 O
   O15        1.0     0.872365      0.401857      0.372879     Biso  1.000000 O
   O16        1.0     0.475541      0.231730      0.471021     Biso  1.000000 O
   O17        1.0     0.947112      0.837721      0.247590     Biso  1.000000 O
   O18        1.0     0.326399      0.770525      0.723818     Biso  1.000000 O
   O19        1.0     0.490959      0.803251      0.258320     Biso  1.000000 O
   O20        1.0     0.705743      0.629700      0.338880     Biso  1.000000 O
   O21        1.0     0.702288      0.688672      0.468629     Biso  1.000000 O
   O22        1.0     0.617492      0.826976      0.599650     Biso  1.000000 O
   O23        1.0     0.758458      0.951522      0.657479     Biso  1.000000 O
   O24        1.0     0.071189      0.098938      0.652889     Biso  1.000000 O
   O25        1.0     0.190858      0.174771      0.741271     Biso  1.000000 O
   O26        1.0     0.509924      0.220732      0.821098     Biso  1.000000 O
   O27        1.0     0.265840      0.726125      0.248969     Biso  1.000000 O
   O28        1.0     0.009706      0.080061      0.977542     Biso  1.000000 O
   O29        1.0     0.878949      0.721081      0.861583     Biso  1.000000 O
   O30        1.0     0.761847      0.610032      0.766695     Biso  1.000000 O
   O31        1.0     0.593684      0.427749      0.689216     Biso  1.000000 O
   O32        1.0     0.391613      0.539580      0.667347     Biso  1.000000 O
   O33        1.0     0.345879      0.833291      0.639531     Biso  1.000000 O
   O34        1.0     0.420856      0.889216      0.485909     Biso  1.000000 O
   O35        1.0     0.396726      0.951164      0.373483     Biso  1.000000 O
   O36        1.0     0.021991      0.901522      0.961232     Biso  1.000000 O
   O37        1.0     0.716338      0.206175      0.913788     Biso  1.000000 O
   O38        1.0     0.436070      0.288963      0.722827     Biso  1.000000 O
   O39        1.0     0.767466      0.945535      0.200232     Biso  1.000000 O
   O40        1.0     0.856957      0.172001      0.527363     Biso  1.000000 O
   O41        1.0     0.850563      0.063884      0.466841     Biso  1.000000 O
   O42        1.0     0.198345      0.156347      0.500022     Biso  1.000000 O
   O43        1.0     0.318478      0.143423      0.600533     Biso  1.000000 O
   O44        1.0     0.421882      0.401006      0.837128     Biso  1.000000 O
   O45        1.0     0.386504      0.630595      0.900107     Biso  1.000000 O
   O46        1.0     0.157746      0.641125      0.886641     Biso  1.000000 O
   O47        1.0     0.156547      0.317793      0.539623     Biso  1.000000 O
   O48        1.0     0.034734      0.513286      0.762709     Biso  1.000000 O
   O49        1.0     0.896924      0.532167      0.930012     Biso  1.000000 O
   O50        1.0     0.974927      0.458684      0.027801     Biso  1.000000 O
   O51        1.0     0.199886      0.478151      0.153672     Biso  1.000000 O
   O52        1.0     0.370499      0.528849      0.155891     Biso  1.000000 O
   O53        1.0     0.691749      0.437252      0.227897     Biso  1.000000 O
   O54        1.0     0.943591      0.850890      0.095649     Biso  1.000000 O
   O55        1.0     0.181304      0.740638      0.122861     Biso  1.000000 O
   O56        1.0     0.866001      0.427643      0.782940     Biso  1.000000 O
   O57        1.0     0.250493      0.330936      0.432885     Biso  1.000000 O
   O58        1.0     0.151316      0.289621      0.283938     Biso  1.000000 O
   O59        1.0     0.210471      0.133207      0.216780     Biso  1.000000 O
   O60        1.0     0.703687      0.790466      0.206287     Biso  1.000000 O
   O61        1.0     0.992238      0.684228      0.153090     Biso  1.000000 O
   O62        1.0     0.170296      0.620650      0.239575     Biso  1.000000 O
   O63        1.0     0.208021      0.590394      0.395933     Biso  1.000000 O
   O64        1.0     0.259287      0.476681      0.479122     Biso  1.000000 O
   O65        1.0     0.211737      0.602927      0.609087     Biso  1.000000 O
   O66        1.0     0.045595      0.531714      0.619730     Biso  1.000000 O
   O67        1.0     0.007563      0.406060      0.481535     Biso  1.000000 O
   O68        1.0     0.088746      0.430560      0.352928     Biso  1.000000 O
   O69        1.0     0.125874      0.372855      0.201008     Biso  1.000000 O
   O70        1.0     0.291496      0.289625      0.117561     Biso  1.000000 O
   O71        1.0     0.530461      0.480238      0.069966     Biso  1.000000 O
   O72        1.0     0.486422      0.662466      0.111765     Biso  1.000000 O
   O73        1.0     0.282028      0.852151      0.068910     Biso  1.000000 O
   O74        1.0     0.357097      0.987373      0.005652     Biso  1.000000 O
   O75        1.0     0.620468      0.112447      0.086880     Biso  1.000000 O
   O76        1.0     0.551370      0.077535      0.189330     Biso  1.000000 O
   O77        1.0     0.110982      0.940966      0.155697     Biso  1.000000 O
   O78        1.0     0.675086      0.248466      0.213957     Biso  1.000000 O
   O79        1.0     0.908539      0.982198      0.777791     Biso  1.000000 O
   O80        1.0     0.722606      0.825569      0.012266     Biso  1.000000 O
   O81        1.0     0.650119      0.007480      0.730993     Biso  1.000000 O
   O82        1.0     0.261017      0.063880      0.791753     Biso  1.000000 O
   O83        1.0     0.412553      0.989332      0.710719     Biso  1.000000 O
   O84        1.0     0.364839      0.003309      0.562698     Biso  1.000000 O
   O85        1.0     0.154316      0.921723      0.553908     Biso  1.000000 O
   O86        1.0     0.081447      0.743467      0.671440     Biso  1.000000 O
   O87        1.0     0.024369      0.708658      0.770616     Biso  1.000000 O
   O88        1.0     0.617911      0.082305      0.593100     Biso  1.000000 O
   O89        1.0     0.214952      0.837538      0.885542     Biso  1.000000 O
   O90        1.0     0.296548      0.241642      0.006557     Biso  1.000000 O
   O91        1.0     0.224373      0.425176      0.984911     Biso  1.000000 O
   O92        1.0     0.050066      0.638534      0.040190     Biso  1.000000 O
   O93        1.0     0.815833      0.538150      0.051997     Biso  1.000000 O
   O94        1.0     0.808831      0.287530      0.067122     Biso  1.000000 O
   O95        1.0     0.654248      0.175195      0.005953     Biso  1.000000 O
   O96        1.0     0.676326      0.948035      0.917236     Biso  1.000000 O
   O97        1.0     0.325879      0.035097      0.913508     Biso  1.000000 O
   O98        1.0     0.885782      0.935334      0.842385     Biso  1.000000 O
   O99        1.0     0.783731      0.979029      0.551581     Biso  1.000000 O
   O100       1.0     0.147718      0.944036      0.714446     Biso  1.000000 O
   O101       1.0     0.431798      0.728924      0.341142     Biso  1.000000 O
   O102       1.0     0.610015      0.832955      0.147531     Biso  1.000000 O
   O103       1.0     0.754860      0.685697      0.261466     Biso  1.000000 O
   O104       1.0     0.992151      0.666465      0.310504     Biso  1.000000 O
   O105       1.0     0.052041      0.677199      0.462553     Biso  1.000000 O
   O106       1.0     0.996203      0.643168      0.576423     Biso  1.000000 O
   O107       1.0     0.663159      0.558746      0.582434     Biso  1.000000 O
   O108       1.0     0.117535      0.997958      0.618653     Biso  1.000000 O
   O109       1.0     0.494108      0.664228      0.548931     Biso  1.000000 O
   O110       1.0     0.793428      0.813847      0.423749     Biso  1.000000 O
   O111       1.0     0.869915      0.806040      0.578707     Biso  1.000000 O
   O112       1.0     0.697971      0.716220      0.661766     Biso  1.000000 O
   O113       1.0     0.483309      0.542832      0.736423     Biso  1.000000 O
   O114       1.0     0.359348      0.599404      0.783134     Biso  1.000000 O
   O115       1.0     0.575898      0.788175      0.754887     Biso  1.000000 O
   O116       1.0     0.844040      0.815883      0.767190     Biso  1.000000 O
   O117       1.0     0.549548      0.801227      0.416682     Biso  1.000000 O
   O118       1.0     0.068775      0.111157      0.916869     Biso  1.000000 O
   O119       1.0     0.540453      0.043972      0.864147     Biso  1.000000 O
   O120       1.0     0.572963      0.777195      0.851090     Biso  1.000000 O
   O121       1.0     0.720406      0.288707      0.478088     Biso  1.000000 O
   O122       1.0     0.923141      0.317892      0.572739     Biso  1.000000 O
   O123       1.0     0.930857      0.265283      0.712011     Biso  1.000000 O
   O124       1.0     0.038491      0.192162      0.810498     Biso  1.000000 O
   O125       1.0     0.346548      0.252169      0.896616     Biso  1.000000 O
   O126       1.0     0.605453      0.362592      0.936498     Biso  1.000000 O
   O127       1.0     0.977708      0.350622      0.957096     Biso  1.000000 O
   O128       1.0     0.779949      0.196800      0.337760     Biso  1.000000 O
   O129       1.0     0.003368      0.322300      0.889420     Biso  1.000000 O
   O130       1.0     0.743653      0.152692      0.722655     Biso  1.000000 O
   O131       1.0     0.615149      0.280345      0.599370     Biso  1.000000 O
   O132       1.0     0.372387      0.368520      0.580603     Biso  1.000000 O
   O133       1.0     0.200254      0.351178      0.721233     Biso  1.000000 O
   O134       1.0     0.168688      0.430464      0.830083     Biso  1.000000 O
   O135       1.0     0.348247      0.510113      0.960801     Biso  1.000000 O
   O136       1.0     0.454371      0.666410      0.029568     Biso  1.000000 O
   O137       1.0     0.787237      0.145846      0.824222     Biso  1.000000 O
   O138       1.0     0.927183      0.248144      0.230569     Biso  1.000000 O
   O139       1.0     0.983516      0.288166      0.085738     Biso  1.000000 O
   O140       1.0     0.153755      0.157078      0.066971     Biso  1.000000 O
   O141       1.0     0.593903      0.556129      0.831763     Biso  1.000000 O
   O142       1.0     0.639897      0.326635      0.774645     Biso  1.000000 O
   O143       1.0     0.748134      0.361803      0.670428     Biso  1.000000 O
   O144       1.0     0.769069      0.484028      0.530660     Biso  1.000000 O
   O145       1.0     0.897959      0.541992      0.423771     Biso  1.000000 O
   O146       1.0     0.931521      0.523721      0.274156     Biso  1.000000 O
   O147       1.0     0.823340      0.548889      0.181897     Biso  1.000000 O
   O148       1.0     0.466615      0.557522      0.226152     Biso  1.000000 O
   O149       1.0     0.387137      0.412076      0.263814     Biso  1.000000 O
   O150       1.0     0.485350      0.246101      0.159791     Biso  1.000000 O
   O151       1.0     0.531966      0.310081      0.054130     Biso  1.000000 O
   O152       1.0     0.641800      0.512928      0.961534     Biso  1.000000 O
   O153       1.0     0.785645      0.676600      0.938329     Biso  1.000000 O
   O154       1.0     0.102239      0.723069      0.000015     Biso  1.000000 O
   O155       1.0     0.376654      0.810539      0.982886     Biso  1.000000 O
   O156       1.0     0.620018      0.918013      0.072702     Biso  1.000000 O
   O157       1.0     0.412915      0.991829      0.126804     Biso  1.000000 O
   O158       1.0     0.893223      0.146416      0.113877     Biso  1.000000 O
   O159       1.0     0.073991      0.933284      0.240588     Biso  1.000000 O
   O160       1.0     0.738927      0.976050      0.154663     Biso  1.000000 O
   O161       1.0     0.415227      0.655887      0.320243     Biso  1.000000 O
   O162       1.0     0.911760      0.863061      0.374366     Biso  1.000000 O
   O163       1.0     0.868124      0.120006      0.406146     Biso  1.000000 O
   O164       1.0     0.185770      0.086994      0.344999     Biso  1.000000 O
   O165       1.0     0.459628      0.195813      0.252912     Biso  1.000000 O
   O166       1.0     0.745046      0.982136      0.328646     Biso  1.000000 O
   O167       1.0     0.631976      0.991036      0.470655     Biso  1.000000 O
   O168       1.0     0.410062      0.290228      0.494247     Biso  1.000000 O
   O169       1.0     0.936925      0.822688      0.201439     Biso  1.000000 O
   O170       1.0     0.579419      0.432354      0.381476     Biso  1.000000 O
   O171       1.0     0.176022      0.774344      0.526954     Biso  1.000000 O
   O172       1.0     0.048177      0.972421      0.392443     Biso  1.000000 O
   O173       1.0     0.327083      0.109322      0.459343     Biso  1.000000 O
   O174       1.0     0.390240      0.232856      0.333063     Biso  1.000000 O
   O175       1.0     0.644327      0.408904      0.299882     Biso  1.000000 O
   O176       1.0     0.844418      0.338696      0.404659     Biso  1.000000 O
   O177       1.0     0.601773      0.538845      0.430127     Biso  1.000000 O
   O178       1.0     0.394909      0.577869      0.479230     Biso  1.000000 O
   O179       1.0     0.082953      0.978649      0.114631     Biso  1.000000 O
   O180       1.0     0.286846      0.747389      0.202301     Biso  1.000000 O
   O181       1.0     0.457122      0.013072      0.354156     Biso  1.000000 O
   O182       1.0     0.704605      0.636798      0.507110     Biso  1.000000 O
   O183       1.0     0.594434      0.879168      0.561988     Biso  1.000000 O
   O184       1.0     0.834190      0.918576      0.688182     Biso  1.000000 O
   O185       1.0     0.990125      0.158397      0.645887     Biso  1.000000 O
   O186       1.0     0.171117      0.233262      0.775830     Biso  1.000000 O
   O187       1.0     0.542383      0.173141      0.782122     Biso  1.000000 O
   O188       1.0     0.713878      0.132253      0.894483     Biso  1.000000 O
   O189       1.0     0.482293      0.864541      0.224989     Biso  1.000000 O
   O190       1.0     0.014728      0.160893      0.993530     Biso  1.000000 O
   O191       1.0     0.793571      0.772977      0.875480     Biso  1.000000 O
   O192       1.0     0.864944      0.593377      0.741314     Biso  1.000000 O
   O193       1.0     0.656922      0.443487      0.650670     Biso  1.000000 O
   O194       1.0     0.298018      0.506988      0.686609     Biso  1.000000 O
   O195       1.0     0.229604      0.740057      0.745494     Biso  1.000000 O
   O196       1.0     0.434365      0.887940      0.635545     Biso  1.000000 O
   O197       1.0     0.352177      0.821416      0.487008     Biso  1.000000 O
   O198       1.0     0.106440      0.847582      0.952916     Biso  1.000000 O
   O199       1.0     0.814220      0.617426      0.328710     Biso  1.000000 O
   O200       1.0     0.634502      0.723763      0.198552     Biso  1.000000 O
   O201       1.0     0.207016      0.540709      0.248797     Biso  1.000000 O
   O202       1.0     0.147110      0.212143      0.470159     Biso  1.000000 O
   O203       1.0     0.293930      0.098193      0.642289     Biso  1.000000 O
   O204       1.0     0.525903      0.287852      0.693934     Biso  1.000000 O
   O205       1.0     0.528470      0.389767      0.852490     Biso  1.000000 O
   O206       1.0     0.489290      0.627828      0.920769     Biso  1.000000 O
   O207       1.0     0.042890      0.642861      0.895324     Biso  1.000000 O
   O208       1.0     0.112569      0.566272      0.743404     Biso  1.000000 O
   O209       1.0     0.898016      0.007459      0.496488     Biso  1.000000 O
   O210       1.0     0.790274      0.491367      0.783544     Biso  1.000000 O
   O211       1.0     0.053607      0.396236      0.026508     Biso  1.000000 O
   O212       1.0     0.122062      0.539086      0.155245     Biso  1.000000 O
   O213       1.0     0.390959      0.511809      0.108425     Biso  1.000000 O
   O214       1.0     0.208124      0.724783      0.077507     Biso  1.000000 O
   O215       1.0     0.939176      0.774907      0.076904     Biso  1.000000 O
   O216       1.0     0.581828      0.776117      0.115773     Biso  1.000000 O
   O217       1.0     0.227104      0.854585      0.368743     Biso  1.000000 O
   O218       1.0     0.005511      0.507507      0.913185     Biso  1.000000 O
   O219       1.0     0.925534      0.630537      0.126761     Biso  1.000000 O
   O220       1.0     0.875238      0.143467      0.571511     Biso  1.000000 O
   O221       1.0     0.351233      0.314540      0.405974     Biso  1.000000 O
   O222       1.0     0.202928      0.672474      0.387789     Biso  1.000000 O
   O223       1.0     0.369785      0.454814      0.487396     Biso  1.000000 O
   O224       1.0     0.331768      0.601575      0.616886     Biso  1.000000 O
   O225       1.0     0.122419      0.470007      0.617425     Biso  1.000000 O
   O226       1.0     0.902226      0.433253      0.495109     Biso  1.000000 O
   O227       1.0     0.200453      0.442065      0.341465     Biso  1.000000 O
   O228       1.0     0.014448      0.394310      0.207364     Biso  1.000000 O
   O229       1.0     0.180253      0.273349      0.582284     Biso  1.000000 O
   O230       1.0     0.236362      0.333868      0.082958     Biso  1.000000 O
   O231       1.0     0.488591      0.687941      0.159231     Biso  1.000000 O
   O232       1.0     0.315100      0.901310      0.106120     Biso  1.000000 O
   O233       1.0     0.302540      0.051457      0.025905     Biso  1.000000 O
   O234       1.0     0.675050      0.077926      0.047063     Biso  1.000000 O
   O235       1.0     0.537759      0.003148      0.209174     Biso  1.000000 O
   O236       1.0     0.198416      0.069925      0.247806     Biso  1.000000 O
   O237       1.0     0.051586      0.278214      0.310698     Biso  1.000000 O
   O238       1.0     0.586738      0.435348      0.106422     Biso  1.000000 O
   O239       1.0     0.586187      0.465000      0.232810     Biso  1.000000 O
   O240       1.0     0.690785      0.187498      0.245392     Biso  1.000000 O
   O241       1.0     0.921584      0.083902      0.146777     Biso  1.000000 O
   O242       1.0     0.233254      0.010001      0.827540     Biso  1.000000 O
   O243       1.0     0.519702      0.967015      0.702768     Biso  1.000000 O
   O244       1.0     0.475194      0.032751      0.555998     Biso  1.000000 O
   O245       1.0     0.054567      0.882173      0.542273     Biso  1.000000 O
   O246       1.0     0.186668      0.774414      0.681028     Biso  1.000000 O
   O247       1.0     0.951364      0.740426      0.801168     Biso  1.000000 O
   O248       1.0     0.294772      0.795967      0.858847     Biso  1.000000 O
   O249       1.0     0.915858      0.040741      0.742520     Biso  1.000000 O
   O250       1.0     0.436718      0.020427      0.932598     Biso  1.000000 O
   O251       1.0     0.145707      0.452197      0.953821     Biso  1.000000 O
   O252       1.0     0.110216      0.605215      0.079231     Biso  1.000000 O
   O253       1.0     0.774351      0.554715      0.097092     Biso  1.000000 O
   O254       1.0     0.725846      0.294683      0.102543     Biso  1.000000 O
   O255       1.0     0.570580      0.174135      0.971984     Biso  1.000000 O
   O256       1.0     0.775453      0.962425      0.940764     Biso  1.000000 O
   O257       1.0     0.954068      0.879358      0.863263     Biso  1.000000 O
   O258       1.0     0.367830      0.201105      0.036872     Biso  1.000000 O
   O259       1.0     0.162625      0.064414      0.919002     Biso  1.000000 O
   O260       1.0     0.579425      0.065839      0.749480     Biso  1.000000 O
   O261       1.0     0.784022      0.926029      0.587498     Biso  1.000000 O
   O262       1.0     0.748670      0.764169      0.273768     Biso  1.000000 O
   O263       1.0     0.059665      0.735383      0.313951     Biso  1.000000 O
   O264       1.0     0.939028      0.666955      0.460550     Biso  1.000000 O
   O265       1.0     0.987548      0.677528      0.619299     Biso  1.000000 O
   O266       1.0     0.655846      0.571995      0.629146     Biso  1.000000 O
   O267       1.0     0.465824      0.744385      0.552615     Biso  1.000000 O
   O268       1.0     0.545547      0.720704      0.400243     Biso  1.000000 O
   O269       1.0     0.549686      0.147451      0.602666     Biso  1.000000 O
   O270       1.0     0.787477      0.892231      0.439607     Biso  1.000000 O
   O271       1.0     0.614966      0.696278      0.631171     Biso  1.000000 O
   O272       1.0     0.546159      0.578033      0.773740     Biso  1.000000 O
   O273       1.0     0.323898      0.634827      0.824416     Biso  1.000000 O
   O274       1.0     0.502365      0.846186      0.771349     Biso  1.000000 O
   O275       1.0     0.857881      0.787981      0.721255     Biso  1.000000 O
   O276       1.0     0.175905      0.911950      0.758184     Biso  1.000000 O
   O277       1.0     0.116453      0.055360      0.584654     Biso  1.000000 O
   O278       1.0     0.921798      0.742510      0.556536     Biso  1.000000 O
   O279       1.0     0.616471      0.027221      0.830449     Biso  1.000000 O
   O280       1.0     0.523693      0.790923      0.895173     Biso  1.000000 O
   O281       1.0     0.670748      0.542171      0.868563     Biso  1.000000 O
   O282       1.0     0.969221      0.390289      0.580711     Biso  1.000000 O
   O283       1.0     0.012467      0.320841      0.726404     Biso  1.000000 O
   O284       1.0     0.082570      0.125068      0.831612     Biso  1.000000 O
   O285       1.0     0.281350      0.325260      0.893859     Biso  1.000000 O
   O286       1.0     0.653130      0.423637      0.911612     Biso  1.000000 O
   O287       1.0     0.930592      0.292523      0.988143     Biso  1.000000 O
   O288       1.0     0.909580      0.363959      0.879854     Biso  1.000000 O
   O289       1.0     0.616104      0.246255      0.482009     Biso  1.000000 O
   O290       1.0     0.863107      0.105071      0.851305     Biso  1.000000 O
   O291       1.0     0.695730      0.240447      0.574850     Biso  1.000000 O
   O292       1.0     0.320969      0.441524      0.583986     Biso  1.000000 O
   O293       1.0     0.230528      0.274859      0.703544     Biso  1.000000 O
   O294       1.0     0.099330      0.480680      0.857123     Biso  1.000000 O
   O295       1.0     0.405877      0.444620      0.942552     Biso  1.000000 O
   O296       1.0     0.410705      0.691713      0.985902     Biso  1.000000 O
   O297       1.0     0.710928      0.834311      0.964292     Biso  1.000000 O
   O298       1.0     0.835956      0.125916      0.696757     Biso  1.000000 O
   O299       1.0     0.689708      0.142911      0.341940     Biso  1.000000 O
   O300       1.0     0.875142      0.322026      0.239317     Biso  1.000000 O
   O301       1.0     0.965562      0.371156      0.092524     Biso  1.000000 O
   O302       1.0     0.710413      0.307501      0.812243     Biso  1.000000 O
   O303       1.0     0.855079      0.390520      0.670406     Biso  1.000000 O
   O304       1.0     0.670881      0.441152      0.533310     Biso  1.000000 O
   O305       1.0     0.012957      0.555237      0.426205     Biso  1.000000 O
   O306       1.0     0.048499      0.529280      0.277173     Biso  1.000000 O
   O307       1.0     0.772289      0.487339      0.159597     Biso  1.000000 O
   O308       1.0     0.497185      0.634743      0.228996     Biso  1.000000 O
   O309       1.0     0.313257      0.357848      0.284627     Biso  1.000000 O
   O310       1.0     0.387315      0.202337      0.163841     Biso  1.000000 O
   O311       1.0     0.446741      0.318638      0.018407     Biso  1.000000 O
   O312       1.0     0.736176      0.492602      0.986032     Biso  1.000000 O
   O313       1.0     0.734936      0.689319      0.982002     Biso  1.000000 O
   O314       1.0     0.063207      0.797996      0.014593     Biso  1.000000 O
   O315       1.0     0.430487      0.845250      0.944448     Biso  1.000000 O
   O316       1.0     0.679690      0.947238      0.034609     Biso  1.000000 O
   O317       1.0     0.438367      0.068222      0.142123     Biso  1.000000 O
   O318       1.0     0.104046      0.082714      0.066907     Biso  1.000000 O
   O319       1.0     0.211512      0.930561      0.389793     Biso  1.000000 O
   O320       1.0     0.055598      0.008304      0.259268     Biso  1.000000 O

# Number_of_total_atoms: 2260
# Number_of_atom_type: 3
# Name_of_each_atom:  C  H O
# Number_of_each_atom: 964 976 320
# Created_by: Lihua Chen (lihua.chen@mse.gatech.edu)
# Tool: VASP 
# K-points: 1 1 1
# Pseudopotential: PBE-HSE06
# Material_class: MC_Pol
# Geometry_class: GC_PD
# Bandgap_(eV): 3.46

# Note: average bandgap of 5 configurations
# Note:  HSE06 Band gap is derived from PBE band gap, based on Eg (HSE06)=1.140*Eg (PBE) + 0.799, R2=0.97

